@<TRIPOS>MOLECULE
*****
   55    60     1     0     0
SMALL
No Charge or Current Charge


@<TRIPOS>ATOM
      1 C           -7.6140     0.4000    -0.1680 ca         1 LIG       0.434180
      2 C1          -6.9120     1.2800    -0.9750 ca         1 LIG      -0.317184
      3 N           -7.0240    -0.5090     0.6030 nb         1 LIG      -0.400965
      4 C2          -5.5330     1.2120    -0.9860 ca         1 LIG      -0.032649
      5 C3          -5.6990    -0.5670     0.5830 ca         1 LIG       0.141987
      6 C4          -4.8930     0.2690    -0.1910 DD         1 LIG      -0.007625
      7 C5          -3.4240     0.1800    -0.1430 cp         1 LIG      -0.129638
      8 C6          -2.6340     1.2950    -0.0860 AA         1 LIG       0.119679
      9 C7          -2.7140    -1.0560    -0.1570 ca         1 LIG       0.226931
     10 N1          -1.2790     1.3160    -0.0540 nb         1 LIG      -0.375192
     11 N2          -3.2230    -2.2880    -0.2170 nc         1 LIG      -0.464164
     12 C8          -1.2860    -1.0480    -0.1270 ca         1 LIG       0.064834
     13 C9          -0.5880     0.2020    -0.0720 ca         1 LIG       0.304122
     14 S           -1.9730    -3.3030    -0.2240 ss         1 LIG       0.609837
     15 N3          -0.7460    -2.2630    -0.1600 nc         1 LIG      -0.435416
     16 C10          0.8500     0.3300    -0.0340 cc         1 LIG      -0.253007
     17 S1           1.9830    -0.9780    -0.0690 BB         1 LIG       0.258157
     18 C11          1.5340     1.5220     0.0330 cd         1 LIG      -0.004470
     19 C12          3.3430     0.0740     0.0050 EE         1 LIG      -0.226670
     20 S2           1.0380     3.1790     0.0930 ss         1 LIG       0.167394
     21 C13          2.9460     1.3940     0.0550 cd         1 LIG       0.090582
     22 C14          4.7010    -0.4280     0.0010 cc         1 LIG       0.243101
     23 C15          2.7160     3.6760     0.1470 cc         1 LIG      -0.221454
     24 C16          3.6070     2.6690     0.1230 cd         1 LIG      -0.165138
     25 N4           5.7480     0.3450     0.0420 CC         1 LIG      -0.361040
     26 S3           5.0820    -2.1270    -0.0610 ss         1 LIG       0.169376
     27 C17          6.8990    -0.3850     0.0200 cd         1 LIG       0.126414
     28 C18          6.7500    -1.7310    -0.0350 cc         1 LIG      -0.383524
     29 C19         -8.6970     0.4200    -0.1420 c3         1 LIG      -0.357796
     30 H           -7.4450     1.9900    -1.5910 ha         1 LIG       0.134461
     31 H1          -4.9490     1.8670    -1.6200 ha         1 LIG       0.099450
     32 H2          -5.2420    -1.3150     1.2190 h4         1 LIG       0.065537
     33 H3          -3.0930     2.2750    -0.0540 h4         1 LIG       0.073265
     34 H4           2.9430     4.7300     0.1890 h4         1 LIG       0.142780
     35 H5           4.6780     2.7780     0.1440 ha         1 LIG       0.127612
     36 H6           7.8520     0.1210     0.0460 h4         1 LIG       0.090210
     37 H7           7.5110    -2.4910    -0.0620 h4         1 LIG       0.175588
     38 H8          -9.0550     1.1870    -0.7970 hc         1 LIG       0.111551
     39 C20         -9.0270     0.6210     0.8560 c3         1 LIG      -0.121402
     40 H9          -9.0790    -0.5270    -0.4600 hc         1 LIG       0.121288
     41 H10         -8.6450     1.5690     1.1740 hc         1 LIG       0.073857
     42 H11         -8.6690    -0.1450     1.5110 hc         1 LIG       0.090170
     43 C21        -10.0960     0.6410     0.8810 c3         1 LIG      -0.159911
     44 H12        -10.4540     1.4080     0.2260 hc         1 LIG       0.080693
     45 C22        -10.4260     0.8420     1.8790 c3         1 LIG      -0.172706
     46 H13        -10.4780    -0.3060     0.5630 hc         1 LIG       0.080969
     47 H14        -10.0440     1.7900     2.1960 hc         1 LIG       0.080415
     48 H15        -10.0680     0.0750     2.5340 hc         1 LIG       0.086900
     49 C23        -11.4960     0.8620     1.9030 c3         1 LIG      -0.083151
     50 H16        -11.8540     1.6290     1.2480 hc         1 LIG       0.077098
     51 C24        -11.8250     1.0630     2.9010 c3         1 LIG      -0.422072
     52 H17        -11.8770    -0.0860     1.5850 hc         1 LIG       0.073894
     53 H18        -11.4440     2.0100     3.2190 hc         1 LIG       0.118965
     54 H19        -11.4670     0.2960     3.5560 hc         1 LIG       0.122578
     55 H20        -12.8950     1.0830     2.9260 hc         1 LIG       0.111299
@<TRIPOS>BOND
     1    31     4 1   
     2    30     2 1   
     3     4     2 ar  
     4     4     6 ar  
     5     2     1 ar  
     6    14    11 1   
     7    14    15 1   
     8    11     9 2   
     9     6     7 1   
    10     6     5 ar  
    11     1    29 1   
    12     1     3 ar  
    13    15    12 2   
    14     9     7 ar  
    15     9    12 ar  
    16     7     8 ar  
    17    12    13 ar  
    18     8    33 1   
    19     8    10 ar  
    20    13    10 ar  
    21    13    16 1   
    22    17    16 1   
    23    17    19 1   
    24    37    28 1   
    25    26    28 1   
    26    26    22 1   
    27    28    27 2   
    28    16    18 2   
    29    22    19 1   
    30    22    25 2   
    31    19    21 2   
    32    27    25 1   
    33    27    36 1   
    34    18    21 1   
    35    18    20 1   
    36    21    24 1   
    37    20    23 1   
    38    24    35 1   
    39    24    23 2   
    40    23    34 1   
    41     5     3 ar  
    42     5    32 1   
    43    29    38 1   
    44    29    39 1   
    45    29    40 1   
    46    39    41 1   
    47    39    42 1   
    48    39    43 1   
    49    43    44 1   
    50    43    45 1   
    51    43    46 1   
    52    45    47 1   
    53    45    48 1   
    54    45    49 1   
    55    49    50 1   
    56    49    51 1   
    57    49    52 1   
    58    51    53 1   
    59    51    54 1   
    60    51    55 1   
@<TRIPOS>SUBSTRUCTURE
     1 LIG         1 TEMP              0 ****  ****    0 ROOT
