scan_sander_basal/min_pdbs/min_pdb_C306_000.pdb
 OpenBabel09051719363D

 38 43  0  0  0  0  0  0  0  0999 V2000
   -0.3780    0.1190    0.4580 C   0  0  0  0  0  0  0  0  0  0  0  0
    0.2490    0.3910   -0.7670 C   0  0  0  0  0  0  0  0  0  0  0  0
   -0.2460    1.0190    1.5260 C   0  0  0  0  0  0  0  0  0  0  0  0
    1.0120    1.5590   -0.9200 C   0  0  0  0  0  0  0  0  0  0  0  0
    0.5190    2.1870    1.3690 C   0  0  0  0  0  0  0  0  0  0  0  0
    1.1790    2.4740    0.1490 C   0  0  0  0  0  0  0  0  0  0  0  0
    1.9650    3.7330   -0.0490 C   0  0  0  0  0  0  0  0  0  0  0  0
    1.8350    4.4780   -1.2450 C   0  0  0  0  0  0  0  0  0  0  0  0
    2.8260    4.2920    0.9260 C   0  0  0  0  0  0  0  0  0  0  0  0
    2.4810    5.6370   -1.4860 N   0  0  0  0  0  0  0  0  0  0  0  0
    3.0900    3.7250    2.1210 N   0  0  0  0  0  0  0  0  0  0  0  0
    3.4990    5.4850    0.6840 C   0  0  0  0  0  0  0  0  0  0  0  0
    3.3110    6.1570   -0.5500 C   0  0  0  0  0  0  0  0  0  0  0  0
    4.1460    4.7370    2.8530 S   0  0  0  0  0  0  0  0  0  0  0  0
    4.2970    5.8840    1.6990 N   0  0  0  0  0  0  0  0  0  0  0  0
    3.9730    7.4270   -0.9130 C   0  0  0  0  0  0  0  0  0  0  0  0
    4.8210    8.0970   -0.1400 N   0  0  0  0  0  0  0  0  0  0  0  0
    3.6590    8.1660   -2.4800 B   0  0  0  0  0  0  0  0  0  0  0  0
    5.2790    9.2430   -0.7510 C   0  0  0  0  0  0  0  0  0  0  0  0
    4.7540    9.4300   -2.0060 C   0  0  0  0  0  0  0  0  0  0  0  0
    5.1250   10.5450   -2.8340 C   0  0  0  0  0  0  0  0  0  0  0  0
    4.0440   11.4240   -3.9360 C   0  0  0  0  0  0  0  0  0  0  0  0
    6.3780   11.1040   -2.8830 C   0  0  0  0  0  0  0  0  0  0  0  0
    5.3400   12.5320   -4.4380 C   0  0  0  0  0  0  0  0  0  0  0  0
    7.8570   10.6210   -2.1030 S   0  0  0  0  0  0  0  0  0  0  0  0
    6.4700   12.1660   -3.7640 C   0  0  0  0  0  0  0  0  0  0  0  0
    8.6470   11.9690   -2.9800 C   0  0  0  0  0  0  0  0  0  0  0  0
    7.7920   12.6790   -3.8160 C   0  0  0  0  0  0  0  0  0  0  0  0
   -0.9700   -0.7840    0.5790 H   0  0  0  0  0  0  0  0  0  0  0  0
    0.1430   -0.3030   -1.5960 H   0  0  0  0  0  0  0  0  0  0  0  0
   -0.7380    0.8160    2.4730 H   0  0  0  0  0  0  0  0  0  0  0  0
    1.4950    1.7520   -1.8730 H   0  0  0  0  0  0  0  0  0  0  0  0
    0.5960    2.8810    2.2000 H   0  0  0  0  0  0  0  0  0  0  0  0
    1.1730    4.1340   -2.0390 H   0  0  0  0  0  0  0  0  0  0  0  0
    5.9670    9.8860   -0.2190 H   0  0  0  0  0  0  0  0  0  0  0  0
    5.1790   13.3130   -5.1670 H   0  0  0  0  0  0  0  0  0  0  0  0
    9.7050   12.1350   -2.8230 H   0  0  0  0  0  0  0  0  0  0  0  0
    8.0890   13.5140   -4.4400 H   0  0  0  0  0  0  0  0  0  0  0  0
  1 29  1  0  0  0  0
  1  3  2  0  0  0  0
  2  1  1  0  0  0  0
  3 31  1  0  0  0  0
  4  2  2  0  0  0  0
  4  6  1  0  0  0  0
  5  3  1  0  0  0  0
  5 33  1  0  0  0  0
  6  5  2  0  0  0  0
  7  6  1  0  0  0  0
  7  9  1  0  0  0  0
  8  7  2  0  0  0  0
  9 11  2  0  0  0  0
 10  8  1  0  0  0  0
 10 13  2  0  0  0  0
 11 14  1  0  0  0  0
 12  9  1  0  0  0  0
 12 15  2  0  0  0  0
 13 12  1  0  0  0  0
 15 14  1  0  0  0  0
 16 13  1  0  0  0  0
 16 17  2  0  0  0  0
 18 20  2  0  0  0  0
 18 16  1  0  0  0  0
 19 35  1  0  0  0  0
 19 17  1  0  0  0  0
 20 19  1  0  0  0  0
 21 20  1  0  0  0  0
 22 21  1  0  0  0  0
 23 21  2  0  0  0  0
 23 25  1  0  0  0  0
 24 22  2  0  0  0  0
 24 26  1  0  0  0  0
 26 23  1  0  0  0  0
 27 37  1  0  0  0  0
 27 25  2  0  0  0  0
 28 26  2  0  0  0  0
 28 27  1  0  0  0  0
 30  2  1  0  0  0  0
 32  4  1  0  0  0  0
 34  8  1  0  0  0  0
 36 24  1  0  0  0  0
 38 28  1  0  0  0  0
M  END
$$$$
scan_sander_basal/min_pdbs/min_pdb_C306_015.pdb
 OpenBabel09051719363D

 38 43  0  0  0  0  0  0  0  0999 V2000
   -0.3390    0.0960    0.4140 C   0  0  0  0  0  0  0  0  0  0  0  0
    0.4020    0.3220   -0.7560 C   0  0  0  0  0  0  0  0  0  0  0  0
   -0.3290    1.0490    1.4430 C   0  0  0  0  0  0  0  0  0  0  0  0
    1.1550    1.4990   -0.8920 C   0  0  0  0  0  0  0  0  0  0  0  0
    0.4260    2.2250    1.3040 C   0  0  0  0  0  0  0  0  0  0  0  0
    1.1980    2.4680    0.1410 C   0  0  0  0  0  0  0  0  0  0  0  0
    1.9770    3.7340   -0.0420 C   0  0  0  0  0  0  0  0  0  0  0  0
    1.9520    4.4170   -1.2810 C   0  0  0  0  0  0  0  0  0  0  0  0
    2.7260    4.3590    0.9840 C   0  0  0  0  0  0  0  0  0  0  0  0
    2.5980    5.5770   -1.5160 N   0  0  0  0  0  0  0  0  0  0  0  0
    2.8770    3.8620    2.2290 N   0  0  0  0  0  0  0  0  0  0  0  0
    3.3990    5.5530    0.7480 C   0  0  0  0  0  0  0  0  0  0  0  0
    3.3240    6.1570   -0.5310 C   0  0  0  0  0  0  0  0  0  0  0  0
    3.8310    4.9360    3.0080 S   0  0  0  0  0  0  0  0  0  0  0  0
    4.0740    6.0300    1.8180 N   0  0  0  0  0  0  0  0  0  0  0  0
    4.0090    7.4140   -0.8910 C   0  0  0  0  0  0  0  0  0  0  0  0
    4.9860    7.9790   -0.1890 N   0  0  0  0  0  0  0  0  0  0  0  0
    3.5550    8.2730   -2.3570 B   0  0  0  0  0  0  0  0  0  0  0  0
    5.4340    9.1390   -0.7780 C   0  0  0  0  0  0  0  0  0  0  0  0
    4.7730    9.4420   -1.9430 C   0  0  0  0  0  0  0  0  0  0  0  0
    5.1070   10.5920   -2.7370 C   0  0  0  0  0  0  0  0  0  0  0  0
    3.9550   11.6020   -3.6370 C   0  0  0  0  0  0  0  0  0  0  0  0
    6.3760   11.0890   -2.9060 C   0  0  0  0  0  0  0  0  0  0  0  0
    5.2440   12.6760   -4.2230 C   0  0  0  0  0  0  0  0  0  0  0  0
    7.9070   10.4750   -2.3510 S   0  0  0  0  0  0  0  0  0  0  0  0
    6.4240   12.2050   -3.7220 C   0  0  0  0  0  0  0  0  0  0  0  0
    8.6640   11.8400   -3.2310 C   0  0  0  0  0  0  0  0  0  0  0  0
    7.7580   12.6510   -3.9050 C   0  0  0  0  0  0  0  0  0  0  0  0
   -0.9230   -0.8140    0.5210 H   0  0  0  0  0  0  0  0  0  0  0  0
    0.3920   -0.4130   -1.5560 H   0  0  0  0  0  0  0  0  0  0  0  0
   -0.9100    0.8800    2.3460 H   0  0  0  0  0  0  0  0  0  0  0  0
    1.7270    1.6570   -1.8010 H   0  0  0  0  0  0  0  0  0  0  0  0
    0.4060    2.9600    2.1020 H   0  0  0  0  0  0  0  0  0  0  0  0
    1.3780    4.0200   -2.1180 H   0  0  0  0  0  0  0  0  0  0  0  0
    6.2200    9.7060   -0.2960 H   0  0  0  0  0  0  0  0  0  0  0  0
    5.0430   13.5140   -4.8750 H   0  0  0  0  0  0  0  0  0  0  0  0
    9.7410   11.9410   -3.1970 H   0  0  0  0  0  0  0  0  0  0  0  0
    8.0260   13.5130   -4.5060 H   0  0  0  0  0  0  0  0  0  0  0  0
  1 29  1  0  0  0  0
  1  3  2  0  0  0  0
  2  1  1  0  0  0  0
  3 31  1  0  0  0  0
  4  2  2  0  0  0  0
  4  6  1  0  0  0  0
  5  3  1  0  0  0  0
  5 33  1  0  0  0  0
  6  5  2  0  0  0  0
  7  6  1  0  0  0  0
  7  9  1  0  0  0  0
  8  7  2  0  0  0  0
  9 11  2  0  0  0  0
 10  8  1  0  0  0  0
 10 13  2  0  0  0  0
 11 14  1  0  0  0  0
 12  9  1  0  0  0  0
 12 15  2  0  0  0  0
 13 12  1  0  0  0  0
 15 14  1  0  0  0  0
 16 13  1  0  0  0  0
 16 17  2  0  0  0  0
 18 20  2  0  0  0  0
 18 16  1  0  0  0  0
 19 35  1  0  0  0  0
 19 17  1  0  0  0  0
 20 19  1  0  0  0  0
 21 20  1  0  0  0  0
 22 21  2  0  0  0  0
 23 21  1  0  0  0  0
 23 25  2  0  0  0  0
 24 26  2  0  0  0  0
 24 22  1  0  0  0  0
 26 23  1  0  0  0  0
 27 37  1  0  0  0  0
 27 25  1  0  0  0  0
 28 26  1  0  0  0  0
 28 27  2  0  0  0  0
 30  2  1  0  0  0  0
 32  4  1  0  0  0  0
 34  8  1  0  0  0  0
 36 24  1  0  0  0  0
 38 28  1  0  0  0  0
M  END
$$$$
scan_sander_basal/min_pdbs/min_pdb_C306_030.pdb
 OpenBabel09051719363D

 38 43  0  0  0  0  0  0  0  0999 V2000
   -0.3050    0.0790    0.4000 C   0  0  0  0  0  0  0  0  0  0  0  0
    0.5410    0.2540   -0.7050 C   0  0  0  0  0  0  0  0  0  0  0  0
   -0.4080    1.0890    1.3680 C   0  0  0  0  0  0  0  0  0  0  0  0
    1.2870    1.4370   -0.8370 C   0  0  0  0  0  0  0  0  0  0  0  0
    0.3390    2.2700    1.2340 C   0  0  0  0  0  0  0  0  0  0  0  0
    1.2160    2.4630    0.1380 C   0  0  0  0  0  0  0  0  0  0  0  0
    1.9900    3.7320   -0.0440 C   0  0  0  0  0  0  0  0  0  0  0  0
    2.0750    4.3440   -1.3180 C   0  0  0  0  0  0  0  0  0  0  0  0
    2.6280    4.4280    1.0120 C   0  0  0  0  0  0  0  0  0  0  0  0
    2.7240    5.5010   -1.5580 N   0  0  0  0  0  0  0  0  0  0  0  0
    2.6640    4.0100    2.2940 N   0  0  0  0  0  0  0  0  0  0  0  0
    3.3020    5.6190    0.7710 C   0  0  0  0  0  0  0  0  0  0  0  0
    3.3420    6.1450   -0.5410 C   0  0  0  0  0  0  0  0  0  0  0  0
    3.5220    5.1500    3.0930 S   0  0  0  0  0  0  0  0  0  0  0  0
    3.8600    6.1790    1.8680 N   0  0  0  0  0  0  0  0  0  0  0  0
    4.0490    7.3870   -0.8950 C   0  0  0  0  0  0  0  0  0  0  0  0
    5.1330    7.8410   -0.2770 N   0  0  0  0  0  0  0  0  0  0  0  0
    3.4730    8.3700   -2.2320 B   0  0  0  0  0  0  0  0  0  0  0  0
    5.5760    9.0190   -0.8360 C   0  0  0  0  0  0  0  0  0  0  0  0
    4.7990    9.4420   -1.8870 C   0  0  0  0  0  0  0  0  0  0  0  0
    5.1040   10.6320   -2.6350 C   0  0  0  0  0  0  0  0  0  0  0  0
    3.9150   11.7630   -3.3140 C   0  0  0  0  0  0  0  0  0  0  0  0
    6.3710   11.0760   -2.9220 C   0  0  0  0  0  0  0  0  0  0  0  0
    5.1860   12.8130   -3.9770 C   0  0  0  0  0  0  0  0  0  0  0  0
    7.9190   10.3460   -2.6020 S   0  0  0  0  0  0  0  0  0  0  0  0
    6.3870   12.2470   -3.6570 C   0  0  0  0  0  0  0  0  0  0  0  0
    8.6440   11.7350   -3.4700 C   0  0  0  0  0  0  0  0  0  0  0  0
    7.7140   12.6400   -3.9700 C   0  0  0  0  0  0  0  0  0  0  0  0
   -0.8830   -0.8350    0.5030 H   0  0  0  0  0  0  0  0  0  0  0  0
    0.6190   -0.5250   -1.4580 H   0  0  0  0  0  0  0  0  0  0  0  0
   -1.0700    0.9590    2.2200 H   0  0  0  0  0  0  0  0  0  0  0  0
    1.9410    1.5540   -1.6950 H   0  0  0  0  0  0  0  0  0  0  0  0
    0.2330    3.0480    1.9830 H   0  0  0  0  0  0  0  0  0  0  0  0
    1.5890    3.8880   -2.1800 H   0  0  0  0  0  0  0  0  0  0  0  0
    6.4440    9.5080   -0.4160 H   0  0  0  0  0  0  0  0  0  0  0  0
    4.9590   13.7080   -4.5390 H   0  0  0  0  0  0  0  0  0  0  0  0
    9.7220   11.7800   -3.5610 H   0  0  0  0  0  0  0  0  0  0  0  0
    7.9590   13.5300   -4.5380 H   0  0  0  0  0  0  0  0  0  0  0  0
  1 29  1  0  0  0  0
  1  3  2  0  0  0  0
  2  1  1  0  0  0  0
  3 31  1  0  0  0  0
  4  2  2  0  0  0  0
  4  6  1  0  0  0  0
  5  3  1  0  0  0  0
  5 33  1  0  0  0  0
  6  5  2  0  0  0  0
  7  6  1  0  0  0  0
  7  9  1  0  0  0  0
  8  7  2  0  0  0  0
  9 11  2  0  0  0  0
 10  8  1  0  0  0  0
 10 13  2  0  0  0  0
 11 14  1  0  0  0  0
 12  9  1  0  0  0  0
 12 15  2  0  0  0  0
 13 12  1  0  0  0  0
 15 14  1  0  0  0  0
 16 13  1  0  0  0  0
 16 17  2  0  0  0  0
 18 20  2  0  0  0  0
 18 16  1  0  0  0  0
 19 35  1  0  0  0  0
 19 17  1  0  0  0  0
 20 19  1  0  0  0  0
 21 20  1  0  0  0  0
 22 21  2  0  0  0  0
 23 21  1  0  0  0  0
 23 25  2  0  0  0  0
 24 26  2  0  0  0  0
 24 22  1  0  0  0  0
 26 23  1  0  0  0  0
 27 25  1  0  0  0  0
 28 26  1  0  0  0  0
 28 27  2  0  0  0  0
 30  2  1  0  0  0  0
 32  4  1  0  0  0  0
 34  8  1  0  0  0  0
 36 24  1  0  0  0  0
 37 27  1  0  0  0  0
 38 28  1  0  0  0  0
M  END
$$$$
scan_sander_basal/min_pdbs/min_pdb_C306_045.pdb
 OpenBabel09051719363D

 38 43  0  0  0  0  0  0  0  0999 V2000
   -0.2810    0.0690    0.4110 C   0  0  0  0  0  0  0  0  0  0  0  0
    0.6660    0.1870   -0.6170 C   0  0  0  0  0  0  0  0  0  0  0  0
   -0.4880    1.1370    1.2960 C   0  0  0  0  0  0  0  0  0  0  0  0
    1.4080    1.3710   -0.7550 C   0  0  0  0  0  0  0  0  0  0  0  0
    0.2570    2.3190    1.1560 C   0  0  0  0  0  0  0  0  0  0  0  0
    1.2330    2.4560    0.1380 C   0  0  0  0  0  0  0  0  0  0  0  0
    2.0070    3.7240   -0.0510 C   0  0  0  0  0  0  0  0  0  0  0  0
    2.2080    4.2540   -1.3490 C   0  0  0  0  0  0  0  0  0  0  0  0
    2.5320    4.4970    1.0140 C   0  0  0  0  0  0  0  0  0  0  0  0
    2.8650    5.4050   -1.6030 N   0  0  0  0  0  0  0  0  0  0  0  0
    2.4510    4.1660    2.3180 N   0  0  0  0  0  0  0  0  0  0  0  0
    3.2130    5.6800    0.7590 C   0  0  0  0  0  0  0  0  0  0  0  0
    3.3730    6.1180   -0.5720 C   0  0  0  0  0  0  0  0  0  0  0  0
    3.2180    5.3730    3.1140 S   0  0  0  0  0  0  0  0  0  0  0  0
    3.6590    6.3250    1.8600 N   0  0  0  0  0  0  0  0  0  0  0  0
    4.0970    7.3450   -0.9200 C   0  0  0  0  0  0  0  0  0  0  0  0
    5.2660    7.6960   -0.3990 N   0  0  0  0  0  0  0  0  0  0  0  0
    3.4220    8.4490   -2.1040 B   0  0  0  0  0  0  0  0  0  0  0  0
    5.7030    8.8930   -0.9200 C   0  0  0  0  0  0  0  0  0  0  0  0
    4.8350    9.4310   -1.8400 C   0  0  0  0  0  0  0  0  0  0  0  0
    5.1150   10.6600   -2.5300 C   0  0  0  0  0  0  0  0  0  0  0  0
    3.9180   11.8930   -2.9810 C   0  0  0  0  0  0  0  0  0  0  0  0
    6.3630   11.0690   -2.9310 C   0  0  0  0  0  0  0  0  0  0  0  0
    5.1600   12.9340   -3.7110 C   0  0  0  0  0  0  0  0  0  0  0  0
    7.8960   10.2490   -2.8490 S   0  0  0  0  0  0  0  0  0  0  0  0
    6.3580   12.2930   -3.5760 C   0  0  0  0  0  0  0  0  0  0  0  0
    8.5910   11.6680   -3.6930 C   0  0  0  0  0  0  0  0  0  0  0  0
    7.6590   12.6490   -4.0140 C   0  0  0  0  0  0  0  0  0  0  0  0
   -0.8570   -0.8460    0.5190 H   0  0  0  0  0  0  0  0  0  0  0  0
    0.8240   -0.6380   -1.3070 H   0  0  0  0  0  0  0  0  0  0  0  0
   -1.2280    1.0510    2.0880 H   0  0  0  0  0  0  0  0  0  0  0  0
    2.1410    1.4440   -1.5530 H   0  0  0  0  0  0  0  0  0  0  0  0
    0.0700    3.1430    1.8390 H   0  0  0  0  0  0  0  0  0  0  0  0
    1.8130    3.7350   -2.2230 H   0  0  0  0  0  0  0  0  0  0  0  0
    6.6380    9.3100   -0.5710 H   0  0  0  0  0  0  0  0  0  0  0  0
    4.9180   13.8790   -4.1760 H   0  0  0  0  0  0  0  0  0  0  0  0
    9.6520   11.6710   -3.9070 H   0  0  0  0  0  0  0  0  0  0  0  0
    7.8850   13.5690   -4.5400 H   0  0  0  0  0  0  0  0  0  0  0  0
  1 29  1  0  0  0  0
  1  3  2  0  0  0  0
  2  1  1  0  0  0  0
  3 31  1  0  0  0  0
  4  2  2  0  0  0  0
  4  6  1  0  0  0  0
  5  3  1  0  0  0  0
  5 33  1  0  0  0  0
  6  5  2  0  0  0  0
  7  6  1  0  0  0  0
  7  9  1  0  0  0  0
  8  7  2  0  0  0  0
  9 11  2  0  0  0  0
 10  8  1  0  0  0  0
 10 13  2  0  0  0  0
 11 14  1  0  0  0  0
 12  9  1  0  0  0  0
 12 15  2  0  0  0  0
 13 12  1  0  0  0  0
 15 14  1  0  0  0  0
 16 13  1  0  0  0  0
 16 17  2  0  0  0  0
 18 20  2  0  0  0  0
 18 16  1  0  0  0  0
 19 35  1  0  0  0  0
 19 17  1  0  0  0  0
 20 19  1  0  0  0  0
 21 20  1  0  0  0  0
 22 21  2  0  0  0  0
 23 25  2  0  0  0  0
 23 21  1  0  0  0  0
 24 26  2  0  0  0  0
 24 22  1  0  0  0  0
 26 23  1  0  0  0  0
 27 25  1  0  0  0  0
 28 27  2  0  0  0  0
 28 26  1  0  0  0  0
 30  2  1  0  0  0  0
 32  4  1  0  0  0  0
 34  8  1  0  0  0  0
 36 24  1  0  0  0  0
 37 27  1  0  0  0  0
 38 28  1  0  0  0  0
M  END
$$$$
scan_sander_basal/min_pdbs/min_pdb_C306_060.pdb
 OpenBabel09051719363D

 38 43  0  0  0  0  0  0  0  0999 V2000
   -0.2610    0.0610    0.4350 C   0  0  0  0  0  0  0  0  0  0  0  0
    0.7810    0.1230   -0.5030 C   0  0  0  0  0  0  0  0  0  0  0  0
   -0.5630    1.1830    1.2200 C   0  0  0  0  0  0  0  0  0  0  0  0
    1.5220    1.3070   -0.6500 C   0  0  0  0  0  0  0  0  0  0  0  0
    0.1810    2.3650    1.0710 C   0  0  0  0  0  0  0  0  0  0  0  0
    1.2500    2.4480    0.1440 C   0  0  0  0  0  0  0  0  0  0  0  0
    2.0260    3.7120   -0.0570 C   0  0  0  0  0  0  0  0  0  0  0  0
    2.3480    4.1560   -1.3640 C   0  0  0  0  0  0  0  0  0  0  0  0
    2.4380    4.5640    0.9980 C   0  0  0  0  0  0  0  0  0  0  0  0
    3.0160    5.2970   -1.6340 N   0  0  0  0  0  0  0  0  0  0  0  0
    2.2350    4.3240    2.3090 N   0  0  0  0  0  0  0  0  0  0  0  0
    3.1280    5.7370    0.7280 C   0  0  0  0  0  0  0  0  0  0  0  0
    3.4140    6.0830   -0.6080 C   0  0  0  0  0  0  0  0  0  0  0  0
    2.9140    5.5950    3.0860 S   0  0  0  0  0  0  0  0  0  0  0  0
    3.4640    6.4650    1.8140 N   0  0  0  0  0  0  0  0  0  0  0  0
    4.1490    7.2990   -0.9530 C   0  0  0  0  0  0  0  0  0  0  0  0
    5.3840    7.5580   -0.5420 N   0  0  0  0  0  0  0  0  0  0  0  0
    3.3960    8.5150   -1.9660 B   0  0  0  0  0  0  0  0  0  0  0  0
    5.8160    8.7730   -1.0240 C   0  0  0  0  0  0  0  0  0  0  0  0
    4.8770    9.4140   -1.7970 C   0  0  0  0  0  0  0  0  0  0  0  0
    5.1390   10.6800   -2.4250 C   0  0  0  0  0  0  0  0  0  0  0  0
    3.9610   11.9920   -2.6460 C   0  0  0  0  0  0  0  0  0  0  0  0
    6.3520   11.0670   -2.9380 C   0  0  0  0  0  0  0  0  0  0  0  0
    5.1620   13.0340   -3.4390 C   0  0  0  0  0  0  0  0  0  0  0  0
    7.8420   10.1810   -3.0930 S   0  0  0  0  0  0  0  0  0  0  0  0
    6.3340   12.3360   -3.4900 C   0  0  0  0  0  0  0  0  0  0  0  0
    8.5070   11.6310   -3.9090 C   0  0  0  0  0  0  0  0  0  0  0  0
    7.5950   12.6710   -4.0490 C   0  0  0  0  0  0  0  0  0  0  0  0
   -0.8350   -0.8540    0.5500 H   0  0  0  0  0  0  0  0  0  0  0  0
    1.0130   -0.7440   -1.1140 H   0  0  0  0  0  0  0  0  0  0  0  0
   -1.3750    1.1400    1.9410 H   0  0  0  0  0  0  0  0  0  0  0  0
    2.3280    1.3370   -1.3770 H   0  0  0  0  0  0  0  0  0  0  0  0
   -0.0790    3.2300    1.6730 H   0  0  0  0  0  0  0  0  0  0  0  0
    2.0440    3.5730   -2.2340 H   0  0  0  0  0  0  0  0  0  0  0  0
    6.8040    9.1250   -0.7570 H   0  0  0  0  0  0  0  0  0  0  0  0
    4.9170   14.0210   -3.8050 H   0  0  0  0  0  0  0  0  0  0  0  0
    9.5360   11.6070   -4.2440 H   0  0  0  0  0  0  0  0  0  0  0  0
    7.8050   13.6180   -4.5320 H   0  0  0  0  0  0  0  0  0  0  0  0
  1 29  1  0  0  0  0
  1  3  2  0  0  0  0
  2  1  1  0  0  0  0
  3 31  1  0  0  0  0
  4  2  2  0  0  0  0
  4  6  1  0  0  0  0
  5  3  1  0  0  0  0
  5 33  1  0  0  0  0
  6  5  2  0  0  0  0
  7  6  1  0  0  0  0
  7  9  1  0  0  0  0
  8  7  2  0  0  0  0
  9 11  2  0  0  0  0
 10  8  1  0  0  0  0
 10 13  2  0  0  0  0
 11 14  1  0  0  0  0
 12  9  1  0  0  0  0
 12 15  2  0  0  0  0
 13 12  1  0  0  0  0
 15 14  1  0  0  0  0
 16 13  1  0  0  0  0
 16 17  2  0  0  0  0
 18 20  2  0  0  0  0
 18 16  1  0  0  0  0
 19 35  1  0  0  0  0
 19 17  1  0  0  0  0
 20 19  1  0  0  0  0
 21 20  1  0  0  0  0
 22 21  2  0  0  0  0
 23 21  1  0  0  0  0
 24 22  1  0  0  0  0
 25 23  2  0  0  0  0
 26 24  2  0  0  0  0
 26 23  1  0  0  0  0
 27 25  1  0  0  0  0
 28 27  2  0  0  0  0
 28 26  1  0  0  0  0
 30  2  1  0  0  0  0
 32  4  1  0  0  0  0
 34  8  1  0  0  0  0
 36 24  1  0  0  0  0
 37 27  1  0  0  0  0
 38 28  1  0  0  0  0
M  END
$$$$
scan_sander_basal/min_pdbs/min_pdb_C306_075.pdb
 OpenBabel09051719363D

 38 43  0  0  0  0  0  0  0  0999 V2000
   -0.2370    0.0510    0.4630 C   0  0  0  0  0  0  0  0  0  0  0  0
    0.8910    0.0670   -0.3690 C   0  0  0  0  0  0  0  0  0  0  0  0
   -0.6290    1.2190    1.1330 C   0  0  0  0  0  0  0  0  0  0  0  0
    1.6300    1.2510   -0.5260 C   0  0  0  0  0  0  0  0  0  0  0  0
    0.1130    2.4010    0.9750 C   0  0  0  0  0  0  0  0  0  0  0  0
    1.2680    2.4390    0.1550 C   0  0  0  0  0  0  0  0  0  0  0  0
    2.0460    3.7000   -0.0580 C   0  0  0  0  0  0  0  0  0  0  0  0
    2.4910    4.0580   -1.3550 C   0  0  0  0  0  0  0  0  0  0  0  0
    2.3410    4.6300    0.9700 C   0  0  0  0  0  0  0  0  0  0  0  0
    3.1700    5.1900   -1.6380 N   0  0  0  0  0  0  0  0  0  0  0  0
    2.0120    4.4800    2.2690 N   0  0  0  0  0  0  0  0  0  0  0  0
    3.0410    5.7940    0.6870 C   0  0  0  0  0  0  0  0  0  0  0  0
    3.4550    6.0490   -0.6340 C   0  0  0  0  0  0  0  0  0  0  0  0
    2.6000    5.8140    3.0150 S   0  0  0  0  0  0  0  0  0  0  0  0
    3.2640    6.6030    1.7440 N   0  0  0  0  0  0  0  0  0  0  0  0
    4.2000    7.2570   -0.9810 C   0  0  0  0  0  0  0  0  0  0  0  0
    5.4830    7.4370   -0.6940 N   0  0  0  0  0  0  0  0  0  0  0  0
    3.3940    8.5700   -1.8110 B   0  0  0  0  0  0  0  0  0  0  0  0
    5.9150    8.6660   -1.1390 C   0  0  0  0  0  0  0  0  0  0  0  0
    4.9250    9.3970   -1.7540 C   0  0  0  0  0  0  0  0  0  0  0  0
    5.1740   10.6930   -2.3230 C   0  0  0  0  0  0  0  0  0  0  0  0
    4.0420   12.0620   -2.3190 C   0  0  0  0  0  0  0  0  0  0  0  0
    6.3390   11.0680   -2.9450 C   0  0  0  0  0  0  0  0  0  0  0  0
    5.1940   13.1100   -3.1740 C   0  0  0  0  0  0  0  0  0  0  0  0
    7.7590   10.1370   -3.3300 S   0  0  0  0  0  0  0  0  0  0  0  0
    6.3190   12.3720   -3.4060 C   0  0  0  0  0  0  0  0  0  0  0  0
    8.3950   11.6140   -4.1200 C   0  0  0  0  0  0  0  0  0  0  0  0
    7.5230   12.6960   -4.0840 C   0  0  0  0  0  0  0  0  0  0  0  0
   -0.8100   -0.8640    0.5850 H   0  0  0  0  0  0  0  0  0  0  0  0
    1.1940   -0.8360   -0.8920 H   0  0  0  0  0  0  0  0  0  0  0  0
   -1.5080    1.2110    1.7720 H   0  0  0  0  0  0  0  0  0  0  0  0
    2.5040    1.2460   -1.1700 H   0  0  0  0  0  0  0  0  0  0  0  0
   -0.2150    3.3010    1.4860 H   0  0  0  0  0  0  0  0  0  0  0  0
    2.2820    3.4110   -2.2070 H   0  0  0  0  0  0  0  0  0  0  0  0
    6.9410    8.9590   -0.9640 H   0  0  0  0  0  0  0  0  0  0  0  0
    4.9560   14.1300   -3.4430 H   0  0  0  0  0  0  0  0  0  0  0  0
    9.3780   11.5730   -4.5720 H   0  0  0  0  0  0  0  0  0  0  0  0
    7.7220   13.6670   -4.5240 H   0  0  0  0  0  0  0  0  0  0  0  0
  1 29  1  0  0  0  0
  1  3  2  0  0  0  0
  2  1  1  0  0  0  0
  3 31  1  0  0  0  0
  4  2  2  0  0  0  0
  4  6  1  0  0  0  0
  5  3  1  0  0  0  0
  5 33  1  0  0  0  0
  6  5  2  0  0  0  0
  7  6  1  0  0  0  0
  7  9  1  0  0  0  0
  8  7  2  0  0  0  0
  9 11  2  0  0  0  0
 10  8  1  0  0  0  0
 10 13  2  0  0  0  0
 11 14  1  0  0  0  0
 12  9  1  0  0  0  0
 12 15  2  0  0  0  0
 13 12  1  0  0  0  0
 15 14  1  0  0  0  0
 16 17  2  0  0  0  0
 16 13  1  0  0  0  0
 18 20  2  0  0  0  0
 18 16  1  0  0  0  0
 19 35  1  0  0  0  0
 19 17  1  0  0  0  0
 20 19  1  0  0  0  0
 21 22  2  0  0  0  0
 21 20  1  0  0  0  0
 23 21  1  0  0  0  0
 24 22  1  0  0  0  0
 25 23  2  0  0  0  0
 26 24  2  0  0  0  0
 26 23  1  0  0  0  0
 27 28  2  0  0  0  0
 27 25  1  0  0  0  0
 28 26  1  0  0  0  0
 30  2  1  0  0  0  0
 32  4  1  0  0  0  0
 34  8  1  0  0  0  0
 36 24  1  0  0  0  0
 37 27  1  0  0  0  0
 38 28  1  0  0  0  0
M  END
$$$$
scan_sander_basal/min_pdbs/min_pdb_C306_090.pdb
 OpenBabel09051719363D

 38 43  0  0  0  0  0  0  0  0999 V2000
   -0.2150    0.0410    0.5040 C   0  0  0  0  0  0  0  0  0  0  0  0
    0.9920    0.0190   -0.2100 C   0  0  0  0  0  0  0  0  0  0  0  0
   -0.6860    1.2480    1.0430 C   0  0  0  0  0  0  0  0  0  0  0  0
    1.7290    1.2020   -0.3790 C   0  0  0  0  0  0  0  0  0  0  0  0
    0.0540    2.4290    0.8720 C   0  0  0  0  0  0  0  0  0  0  0  0
    1.2860    2.4290    0.1720 C   0  0  0  0  0  0  0  0  0  0  0  0
    2.0670    3.6860   -0.0550 C   0  0  0  0  0  0  0  0  0  0  0  0
    2.6370    3.9580   -1.3250 C   0  0  0  0  0  0  0  0  0  0  0  0
    2.2450    4.6940    0.9250 C   0  0  0  0  0  0  0  0  0  0  0  0
    3.3270    5.0790   -1.6210 N   0  0  0  0  0  0  0  0  0  0  0  0
    1.7880    4.6330    2.1930 N   0  0  0  0  0  0  0  0  0  0  0  0
    2.9560    5.8470    0.6280 C   0  0  0  0  0  0  0  0  0  0  0  0
    3.4990    6.0130   -0.6590 C   0  0  0  0  0  0  0  0  0  0  0  0
    2.2830    6.0280    2.8920 S   0  0  0  0  0  0  0  0  0  0  0  0
    3.0630    6.7350    1.6390 N   0  0  0  0  0  0  0  0  0  0  0  0
    4.2540    7.2120   -1.0140 C   0  0  0  0  0  0  0  0  0  0  0  0
    5.5660    7.3250   -0.8620 N   0  0  0  0  0  0  0  0  0  0  0  0
    3.4180    8.6080   -1.6590 B   0  0  0  0  0  0  0  0  0  0  0  0
    5.9990    8.5660   -1.2730 C   0  0  0  0  0  0  0  0  0  0  0  0
    4.9810    9.3730   -1.7220 C   0  0  0  0  0  0  0  0  0  0  0  0
    5.2210   10.6970   -2.2280 C   0  0  0  0  0  0  0  0  0  0  0  0
    4.1570   12.1020   -2.0050 C   0  0  0  0  0  0  0  0  0  0  0  0
    6.3250   11.0720   -2.9530 C   0  0  0  0  0  0  0  0  0  0  0  0
    5.2520   13.1660   -2.9150 C   0  0  0  0  0  0  0  0  0  0  0  0
    7.6520   10.1210   -3.5570 S   0  0  0  0  0  0  0  0  0  0  0  0
    6.3110   12.4060   -3.3220 C   0  0  0  0  0  0  0  0  0  0  0  0
    8.2600   11.6260   -4.3150 C   0  0  0  0  0  0  0  0  0  0  0  0
    7.4450   12.7330   -4.1090 C   0  0  0  0  0  0  0  0  0  0  0  0
   -0.7870   -0.8730    0.6360 H   0  0  0  0  0  0  0  0  0  0  0  0
    1.3570   -0.9140   -0.6310 H   0  0  0  0  0  0  0  0  0  0  0  0
   -1.6260    1.2690    1.5880 H   0  0  0  0  0  0  0  0  0  0  0  0
    2.6640    1.1660   -0.9300 H   0  0  0  0  0  0  0  0  0  0  0  0
   -0.3350    3.3570    1.2800 H   0  0  0  0  0  0  0  0  0  0  0  0
    2.5230    3.2470   -2.1420 H   0  0  0  0  0  0  0  0  0  0  0  0
    7.0510    8.8090   -1.1970 H   0  0  0  0  0  0  0  0  0  0  0  0
    5.0300   14.2090   -3.0880 H   0  0  0  0  0  0  0  0  0  0  0  0
    9.1840   11.5820   -4.8770 H   0  0  0  0  0  0  0  0  0  0  0  0
    7.6360   13.7250   -4.5030 H   0  0  0  0  0  0  0  0  0  0  0  0
  1 29  1  0  0  0  0
  1  3  2  0  0  0  0
  2  1  1  0  0  0  0
  3 31  1  0  0  0  0
  4  2  2  0  0  0  0
  4  6  1  0  0  0  0
  5  3  1  0  0  0  0
  5 33  1  0  0  0  0
  6  5  2  0  0  0  0
  7  6  1  0  0  0  0
  7  9  1  0  0  0  0
  8  7  2  0  0  0  0
  9 11  2  0  0  0  0
 10  8  1  0  0  0  0
 10 13  2  0  0  0  0
 11 14  1  0  0  0  0
 12  9  1  0  0  0  0
 12 15  2  0  0  0  0
 13 12  1  0  0  0  0
 15 14  1  0  0  0  0
 16 17  2  0  0  0  0
 16 13  1  0  0  0  0
 18 16  1  0  0  0  0
 19 35  1  0  0  0  0
 19 17  1  0  0  0  0
 20 18  2  0  0  0  0
 20 19  1  0  0  0  0
 21 22  2  0  0  0  0
 21 20  1  0  0  0  0
 23 21  1  0  0  0  0
 24 22  1  0  0  0  0
 25 23  2  0  0  0  0
 26 23  1  0  0  0  0
 26 24  2  0  0  0  0
 27 28  2  0  0  0  0
 27 25  1  0  0  0  0
 28 26  1  0  0  0  0
 30  2  1  0  0  0  0
 32  4  1  0  0  0  0
 34  8  1  0  0  0  0
 36 24  1  0  0  0  0
 37 27  1  0  0  0  0
 38 28  1  0  0  0  0
M  END
$$$$
scan_sander_basal/min_pdbs/min_pdb_C306_105.pdb
 OpenBabel09051719363D

 38 43  0  0  0  0  0  0  0  0999 V2000
   -0.1830    0.0260    0.5490 C   0  0  0  0  0  0  0  0  0  0  0  0
    1.0890   -0.0180   -0.0410 C   0  0  0  0  0  0  0  0  0  0  0  0
   -0.7240    1.2560    0.9510 C   0  0  0  0  0  0  0  0  0  0  0  0
    1.8210    1.1670   -0.2220 C   0  0  0  0  0  0  0  0  0  0  0  0
    0.0100    2.4400    0.7690 C   0  0  0  0  0  0  0  0  0  0  0  0
    1.3050    2.4190    0.1930 C   0  0  0  0  0  0  0  0  0  0  0  0
    2.0840    3.6750   -0.0470 C   0  0  0  0  0  0  0  0  0  0  0  0
    2.7720    3.8700   -1.2710 C   0  0  0  0  0  0  0  0  0  0  0  0
    2.1480    4.7530    0.8710 C   0  0  0  0  0  0  0  0  0  0  0  0
    3.4690    4.9840   -1.5780 N   0  0  0  0  0  0  0  0  0  0  0  0
    1.5720    4.7680    2.0900 N   0  0  0  0  0  0  0  0  0  0  0  0
    2.8660    5.8990    0.5620 C   0  0  0  0  0  0  0  0  0  0  0  0
    3.5290    5.9890   -0.6750 C   0  0  0  0  0  0  0  0  0  0  0  0
    1.9740    6.2190    2.7350 S   0  0  0  0  0  0  0  0  0  0  0  0
    2.8620    6.8550    1.5150 N   0  0  0  0  0  0  0  0  0  0  0  0
    4.2940    7.1790   -1.0400 C   0  0  0  0  0  0  0  0  0  0  0  0
    5.6190    7.2310   -1.0370 N   0  0  0  0  0  0  0  0  0  0  0  0
    3.4570    8.6490   -1.4940 B   0  0  0  0  0  0  0  0  0  0  0  0
    6.0600    8.4790   -1.4170 C   0  0  0  0  0  0  0  0  0  0  0  0
    5.0360    9.3540   -1.6920 C   0  0  0  0  0  0  0  0  0  0  0  0
    5.2790   10.6980   -2.1390 C   0  0  0  0  0  0  0  0  0  0  0  0
    4.3140   12.1250   -1.7050 C   0  0  0  0  0  0  0  0  0  0  0  0
    6.3090   11.0780   -2.9630 C   0  0  0  0  0  0  0  0  0  0  0  0
    5.3460   13.2050   -2.6680 C   0  0  0  0  0  0  0  0  0  0  0  0
    7.5120   10.1190   -3.7760 S   0  0  0  0  0  0  0  0  0  0  0  0
    6.3150   12.4330   -3.2430 C   0  0  0  0  0  0  0  0  0  0  0  0
    8.1000   11.6470   -4.5040 C   0  0  0  0  0  0  0  0  0  0  0  0
    7.3660   12.7690   -4.1350 C   0  0  0  0  0  0  0  0  0  0  0  0
   -0.7500   -0.8900    0.6900 H   0  0  0  0  0  0  0  0  0  0  0  0
    1.5090   -0.9700   -0.3570 H   0  0  0  0  0  0  0  0  0  0  0  0
   -1.7130    1.2940    1.4000 H   0  0  0  0  0  0  0  0  0  0  0  0
    2.8060    1.1140   -0.6760 H   0  0  0  0  0  0  0  0  0  0  0  0
   -0.4320    3.3850    1.0690 H   0  0  0  0  0  0  0  0  0  0  0  0
    2.7520    3.1010   -2.0420 H   0  0  0  0  0  0  0  0  0  0  0  0
    7.1240    8.6740   -1.4490 H   0  0  0  0  0  0  0  0  0  0  0  0
    5.1560   14.2660   -2.7470 H   0  0  0  0  0  0  0  0  0  0  0  0
    8.9510   11.6050   -5.1720 H   0  0  0  0  0  0  0  0  0  0  0  0
    7.5580   13.7770   -4.4860 H   0  0  0  0  0  0  0  0  0  0  0  0
  1 29  1  0  0  0  0
  1  3  2  0  0  0  0
  2  1  1  0  0  0  0
  3 31  1  0  0  0  0
  4  2  2  0  0  0  0
  4  6  1  0  0  0  0
  5  3  1  0  0  0  0
  5 33  1  0  0  0  0
  6  5  2  0  0  0  0
  7  6  1  0  0  0  0
  7  9  1  0  0  0  0
  8  7  2  0  0  0  0
  9 11  2  0  0  0  0
 10  8  1  0  0  0  0
 10 13  2  0  0  0  0
 11 14  1  0  0  0  0
 12  9  1  0  0  0  0
 12 15  2  0  0  0  0
 13 12  1  0  0  0  0
 15 14  1  0  0  0  0
 16 17  2  0  0  0  0
 16 13  1  0  0  0  0
 18 16  1  0  0  0  0
 19 17  1  0  0  0  0
 20 18  2  0  0  0  0
 20 19  1  0  0  0  0
 21 22  2  0  0  0  0
 21 20  1  0  0  0  0
 23 21  1  0  0  0  0
 24 22  1  0  0  0  0
 25 23  2  0  0  0  0
 26 23  1  0  0  0  0
 26 24  2  0  0  0  0
 27 28  2  0  0  0  0
 27 25  1  0  0  0  0
 28 26  1  0  0  0  0
 30  2  1  0  0  0  0
 32  4  1  0  0  0  0
 34  8  1  0  0  0  0
 35 19  1  0  0  0  0
 36 24  1  0  0  0  0
 37 27  1  0  0  0  0
 38 28  1  0  0  0  0
M  END
$$$$
scan_sander_basal/min_pdbs/min_pdb_C306_120.pdb
 OpenBabel09051719363D

 38 43  0  0  0  0  0  0  0  0999 V2000
   -0.1370    0.0020    0.5920 C   0  0  0  0  0  0  0  0  0  0  0  0
    1.1860   -0.0450    0.1290 C   0  0  0  0  0  0  0  0  0  0  0  0
   -0.7410    1.2400    0.8570 C   0  0  0  0  0  0  0  0  0  0  0  0
    1.9050    1.1470   -0.0620 C   0  0  0  0  0  0  0  0  0  0  0  0
   -0.0190    2.4290    0.6660 C   0  0  0  0  0  0  0  0  0  0  0  0
    1.3250    2.4080    0.2180 C   0  0  0  0  0  0  0  0  0  0  0  0
    2.0960    3.6670   -0.0300 C   0  0  0  0  0  0  0  0  0  0  0  0
    2.8940    3.8030   -1.1940 C   0  0  0  0  0  0  0  0  0  0  0  0
    2.0470    4.8030    0.8150 C   0  0  0  0  0  0  0  0  0  0  0  0
    3.5910    4.9140   -1.5080 N   0  0  0  0  0  0  0  0  0  0  0  0
    1.3610    4.8770    1.9730 N   0  0  0  0  0  0  0  0  0  0  0  0
    2.7640    5.9490    0.4980 C   0  0  0  0  0  0  0  0  0  0  0  0
    3.5380    5.9810   -0.6780 C   0  0  0  0  0  0  0  0  0  0  0  0
    1.6690    6.3730    2.5590 S   0  0  0  0  0  0  0  0  0  0  0  0
    2.6530    6.9580    1.3890 N   0  0  0  0  0  0  0  0  0  0  0  0
    4.3140    7.1640   -1.0530 C   0  0  0  0  0  0  0  0  0  0  0  0
    5.6320    7.1580   -1.2100 N   0  0  0  0  0  0  0  0  0  0  0  0
    3.5100    8.6990   -1.3200 B   0  0  0  0  0  0  0  0  0  0  0  0
    6.0910    8.4070   -1.5670 C   0  0  0  0  0  0  0  0  0  0  0  0
    5.0900    9.3430   -1.6650 C   0  0  0  0  0  0  0  0  0  0  0  0
    5.3490   10.7020   -2.0570 C   0  0  0  0  0  0  0  0  0  0  0  0
    4.5180   12.1400   -1.4270 C   0  0  0  0  0  0  0  0  0  0  0  0
    6.2940   11.0870   -2.9750 C   0  0  0  0  0  0  0  0  0  0  0  0
    5.4860   13.2310   -2.4430 C   0  0  0  0  0  0  0  0  0  0  0  0
    7.3420   10.1290   -3.9820 S   0  0  0  0  0  0  0  0  0  0  0  0
    6.3390   12.4560   -3.1740 C   0  0  0  0  0  0  0  0  0  0  0  0
    7.9200   11.6730   -4.6840 C   0  0  0  0  0  0  0  0  0  0  0  0
    7.2940   12.8010   -4.1640 C   0  0  0  0  0  0  0  0  0  0  0  0
   -0.6950   -0.9180    0.7390 H   0  0  0  0  0  0  0  0  0  0  0  0
    1.6550   -1.0020   -0.0810 H   0  0  0  0  0  0  0  0  0  0  0  0
   -1.7700    1.2790    1.2060 H   0  0  0  0  0  0  0  0  0  0  0  0
    2.9310    1.0930   -0.4160 H   0  0  0  0  0  0  0  0  0  0  0  0
   -0.5090    3.3790    0.8580 H   0  0  0  0  0  0  0  0  0  0  0  0
    2.9670    2.9850   -1.9100 H   0  0  0  0  0  0  0  0  0  0  0  0
    7.1520    8.5550   -1.7160 H   0  0  0  0  0  0  0  0  0  0  0  0
    5.3430   14.3030   -2.4350 H   0  0  0  0  0  0  0  0  0  0  0  0
    8.6830   11.6360   -5.4510 H   0  0  0  0  0  0  0  0  0  0  0  0
    7.4960   13.8190   -4.4760 H   0  0  0  0  0  0  0  0  0  0  0  0
  1 29  1  0  0  0  0
  1  3  2  0  0  0  0
  2  1  1  0  0  0  0
  3 31  1  0  0  0  0
  4  2  2  0  0  0  0
  4  6  1  0  0  0  0
  5  3  1  0  0  0  0
  5 33  1  0  0  0  0
  6  5  2  0  0  0  0
  7  6  1  0  0  0  0
  7  9  1  0  0  0  0
  8  7  2  0  0  0  0
  9 11  2  0  0  0  0
 10  8  1  0  0  0  0
 10 13  2  0  0  0  0
 11 14  1  0  0  0  0
 12  9  1  0  0  0  0
 12 15  2  0  0  0  0
 13 12  1  0  0  0  0
 15 14  1  0  0  0  0
 16 13  1  0  0  0  0
 17 16  2  0  0  0  0
 18 16  1  0  0  0  0
 19 17  1  0  0  0  0
 20 19  1  0  0  0  0
 20 18  2  0  0  0  0
 21 20  1  0  0  0  0
 21 22  2  0  0  0  0
 23 21  1  0  0  0  0
 24 36  1  0  0  0  0
 24 22  1  0  0  0  0
 25 23  2  0  0  0  0
 26 23  1  0  0  0  0
 26 24  2  0  0  0  0
 27 28  2  0  0  0  0
 27 25  1  0  0  0  0
 28 26  1  0  0  0  0
 30  2  1  0  0  0  0
 32  4  1  0  0  0  0
 34  8  1  0  0  0  0
 35 19  1  0  0  0  0
 37 27  1  0  0  0  0
 38 28  1  0  0  0  0
M  END
$$$$
scan_sander_basal/min_pdbs/min_pdb_C306_135.pdb
 OpenBabel09051719363D

 38 43  0  0  0  0  0  0  0  0999 V2000
   -0.0820   -0.0310    0.6310 C   0  0  0  0  0  0  0  0  0  0  0  0
    1.2790   -0.0620    0.2940 C   0  0  0  0  0  0  0  0  0  0  0  0
   -0.7420    1.2000    0.7640 C   0  0  0  0  0  0  0  0  0  0  0  0
    1.9800    1.1390    0.0970 C   0  0  0  0  0  0  0  0  0  0  0  0
   -0.0370    2.3990    0.5660 C   0  0  0  0  0  0  0  0  0  0  0  0
    1.3420    2.3950    0.2440 C   0  0  0  0  0  0  0  0  0  0  0  0
    2.0990    3.6620   -0.0100 C   0  0  0  0  0  0  0  0  0  0  0  0
    2.9960    3.7550   -1.1010 C   0  0  0  0  0  0  0  0  0  0  0  0
    1.9420    4.8440    0.7550 C   0  0  0  0  0  0  0  0  0  0  0  0
    3.6860    4.8700   -1.4180 N   0  0  0  0  0  0  0  0  0  0  0  0
    1.1550    4.9550    1.8450 N   0  0  0  0  0  0  0  0  0  0  0  0
    2.6500    5.9950    0.4340 C   0  0  0  0  0  0  0  0  0  0  0  0
    3.5250    5.9880   -0.6730 C   0  0  0  0  0  0  0  0  0  0  0  0
    1.3690    6.4870    2.3740 S   0  0  0  0  0  0  0  0  0  0  0  0
    2.4370    7.0410    1.2630 N   0  0  0  0  0  0  0  0  0  0  0  0
    4.3140    7.1650   -1.0610 C   0  0  0  0  0  0  0  0  0  0  0  0
    5.6000    7.1050   -1.3870 N   0  0  0  0  0  0  0  0  0  0  0  0
    3.5810    8.7590   -1.1440 B   0  0  0  0  0  0  0  0  0  0  0  0
    6.0890    8.3480   -1.7250 C   0  0  0  0  0  0  0  0  0  0  0  0
    5.1430    9.3410   -1.6430 C   0  0  0  0  0  0  0  0  0  0  0  0
    5.4340   10.7060   -1.9850 C   0  0  0  0  0  0  0  0  0  0  0  0
    4.7740   12.1420   -1.1730 C   0  0  0  0  0  0  0  0  0  0  0  0
    6.2840   11.1010   -2.9880 C   0  0  0  0  0  0  0  0  0  0  0  0
    5.6770   13.2450   -2.2340 C   0  0  0  0  0  0  0  0  0  0  0  0
    7.1430   10.1570   -4.1720 S   0  0  0  0  0  0  0  0  0  0  0  0
    6.3870   12.4750   -3.1100 C   0  0  0  0  0  0  0  0  0  0  0  0
    7.7250   11.7110   -4.8480 C   0  0  0  0  0  0  0  0  0  0  0  0
    7.2360   12.8330   -4.1890 C   0  0  0  0  0  0  0  0  0  0  0  0
   -0.6260   -0.9590    0.7840 H   0  0  0  0  0  0  0  0  0  0  0  0
    1.7910   -1.0140    0.1860 H   0  0  0  0  0  0  0  0  0  0  0  0
   -1.7980    1.2260    1.0150 H   0  0  0  0  0  0  0  0  0  0  0  0
    3.0350    1.0980   -0.1600 H   0  0  0  0  0  0  0  0  0  0  0  0
   -0.5680    3.3420    0.6550 H   0  0  0  0  0  0  0  0  0  0  0  0
    3.1600    2.8990   -1.7550 H   0  0  0  0  0  0  0  0  0  0  0  0
    7.1310    8.4470   -1.9970 H   0  0  0  0  0  0  0  0  0  0  0  0
    5.6020   14.3200   -2.1470 H   0  0  0  0  0  0  0  0  0  0  0  0
    8.3870   11.6840   -5.7040 H   0  0  0  0  0  0  0  0  0  0  0  0
    7.4600   13.8580   -4.4630 H   0  0  0  0  0  0  0  0  0  0  0  0
  1  3  1  0  0  0  0
  1 29  1  0  0  0  0
  2  1  2  0  0  0  0
  3 31  1  0  0  0  0
  4  6  2  0  0  0  0
  4  2  1  0  0  0  0
  5 33  1  0  0  0  0
  5  3  2  0  0  0  0
  6  5  1  0  0  0  0
  7  6  1  0  0  0  0
  7  9  1  0  0  0  0
  8  7  2  0  0  0  0
  9 11  2  0  0  0  0
 10  8  1  0  0  0  0
 10 13  2  0  0  0  0
 11 14  1  0  0  0  0
 12  9  1  0  0  0  0
 12 15  2  0  0  0  0
 13 12  1  0  0  0  0
 15 14  1  0  0  0  0
 16 13  1  0  0  0  0
 17 16  2  0  0  0  0
 18 16  1  0  0  0  0
 19 20  1  0  0  0  0
 19 17  1  0  0  0  0
 20 18  2  0  0  0  0
 21 20  1  0  0  0  0
 21 22  2  0  0  0  0
 23 21  1  0  0  0  0
 24 36  1  0  0  0  0
 24 22  1  0  0  0  0
 25 23  2  0  0  0  0
 26 23  1  0  0  0  0
 26 24  2  0  0  0  0
 27 28  2  0  0  0  0
 27 25  1  0  0  0  0
 28 26  1  0  0  0  0
 30  2  1  0  0  0  0
 32  4  1  0  0  0  0
 34  8  1  0  0  0  0
 35 19  1  0  0  0  0
 37 27  1  0  0  0  0
 38 28  1  0  0  0  0
M  END
$$$$
scan_sander_basal/min_pdbs/min_pdb_C306_150.pdb
 OpenBabel09051719363D

 38 43  0  0  0  0  0  0  0  0999 V2000
   -0.0200   -0.0690    0.6750 C   0  0  0  0  0  0  0  0  0  0  0  0
    1.3670   -0.0700    0.4610 C   0  0  0  0  0  0  0  0  0  0  0  0
   -0.7260    1.1430    0.6780 C   0  0  0  0  0  0  0  0  0  0  0  0
    2.0460    1.1420    0.2550 C   0  0  0  0  0  0  0  0  0  0  0  0
   -0.0430    2.3540    0.4720 C   0  0  0  0  0  0  0  0  0  0  0  0
    1.3590    2.3810    0.2730 C   0  0  0  0  0  0  0  0  0  0  0  0
    2.0960    3.6580    0.0120 C   0  0  0  0  0  0  0  0  0  0  0  0
    3.0840    3.7220   -1.0000 C   0  0  0  0  0  0  0  0  0  0  0  0
    1.8380    4.8740    0.6890 C   0  0  0  0  0  0  0  0  0  0  0  0
    3.7630    4.8410   -1.3200 N   0  0  0  0  0  0  0  0  0  0  0  0
    0.9560    5.0110    1.7000 N   0  0  0  0  0  0  0  0  0  0  0  0
    2.5350    6.0330    0.3640 C   0  0  0  0  0  0  0  0  0  0  0  0
    3.5040    6.0000   -0.6670 C   0  0  0  0  0  0  0  0  0  0  0  0
    1.0720    6.5740    2.1640 S   0  0  0  0  0  0  0  0  0  0  0  0
    2.2150    7.1060    1.1210 N   0  0  0  0  0  0  0  0  0  0  0  0
    4.3040    7.1720   -1.0720 C   0  0  0  0  0  0  0  0  0  0  0  0
    5.5340    7.0710   -1.5660 N   0  0  0  0  0  0  0  0  0  0  0  0
    3.6770    8.8120   -0.9720 B   0  0  0  0  0  0  0  0  0  0  0  0
    6.0590    8.3020   -1.8890 C   0  0  0  0  0  0  0  0  0  0  0  0
    5.1980    9.3390   -1.6280 C   0  0  0  0  0  0  0  0  0  0  0  0
    5.5330   10.7060   -1.9210 C   0  0  0  0  0  0  0  0  0  0  0  0
    5.0720   12.1180   -0.9470 C   0  0  0  0  0  0  0  0  0  0  0  0
    6.2760   11.1190   -2.9990 C   0  0  0  0  0  0  0  0  0  0  0  0
    5.9060   13.2380   -2.0470 C   0  0  0  0  0  0  0  0  0  0  0  0
    6.9210   10.2100   -4.3360 S   0  0  0  0  0  0  0  0  0  0  0  0
    6.4520   12.4900   -3.0500 C   0  0  0  0  0  0  0  0  0  0  0  0
    7.5140   11.7710   -4.9860 C   0  0  0  0  0  0  0  0  0  0  0  0
    7.1830   12.8720   -4.2050 C   0  0  0  0  0  0  0  0  0  0  0  0
   -0.5470   -1.0060    0.8340 H   0  0  0  0  0  0  0  0  0  0  0  0
    1.9150   -1.0080    0.4540 H   0  0  0  0  0  0  0  0  0  0  0  0
   -1.8010    1.1460    0.8340 H   0  0  0  0  0  0  0  0  0  0  0  0
    3.1200    1.1240    0.0950 H   0  0  0  0  0  0  0  0  0  0  0  0
   -0.6080    3.2800    0.4580 H   0  0  0  0  0  0  0  0  0  0  0  0
    3.3330    2.8370   -1.5850 H   0  0  0  0  0  0  0  0  0  0  0  0
    7.0640    8.3590   -2.2850 H   0  0  0  0  0  0  0  0  0  0  0  0
    5.9120   14.3070   -1.8850 H   0  0  0  0  0  0  0  0  0  0  0  0
    8.0630   11.7640   -5.9190 H   0  0  0  0  0  0  0  0  0  0  0  0
    7.4380   13.8990   -4.4420 H   0  0  0  0  0  0  0  0  0  0  0  0
  1  3  1  0  0  0  0
  1 29  1  0  0  0  0
  2  1  2  0  0  0  0
  3 31  1  0  0  0  0
  4  6  2  0  0  0  0
  4  2  1  0  0  0  0
  5  3  2  0  0  0  0
  6  5  1  0  0  0  0
  7  6  1  0  0  0  0
  7  9  1  0  0  0  0
  8  7  2  0  0  0  0
  9 11  2  0  0  0  0
 10  8  1  0  0  0  0
 10 13  2  0  0  0  0
 11 14  1  0  0  0  0
 12  9  1  0  0  0  0
 12 15  2  0  0  0  0
 13 12  1  0  0  0  0
 15 14  1  0  0  0  0
 16 18  1  0  0  0  0
 16 13  1  0  0  0  0
 17 16  2  0  0  0  0
 19 20  1  0  0  0  0
 19 17  1  0  0  0  0
 20 18  2  0  0  0  0
 21 20  1  0  0  0  0
 21 22  1  0  0  0  0
 23 21  2  0  0  0  0
 24 36  1  0  0  0  0
 24 22  2  0  0  0  0
 25 23  1  0  0  0  0
 26 23  1  0  0  0  0
 26 24  1  0  0  0  0
 27 25  2  0  0  0  0
 27 28  1  0  0  0  0
 28 26  2  0  0  0  0
 30  2  1  0  0  0  0
 32  4  1  0  0  0  0
 33  5  1  0  0  0  0
 34  8  1  0  0  0  0
 35 19  1  0  0  0  0
 37 27  1  0  0  0  0
 38 28  1  0  0  0  0
M  END
$$$$
scan_sander_basal/min_pdbs/min_pdb_C306_165.pdb
 OpenBabel09051719363D

 38 43  0  0  0  0  0  0  0  0999 V2000
    0.0450   -0.1030    0.7340 C   0  0  0  0  0  0  0  0  0  0  0  0
    1.4440   -0.0660    0.6390 C   0  0  0  0  0  0  0  0  0  0  0  0
   -0.6960    1.0800    0.6020 C   0  0  0  0  0  0  0  0  0  0  0  0
    2.1000    1.1560    0.4180 C   0  0  0  0  0  0  0  0  0  0  0  0
   -0.0370    2.3010    0.3820 C   0  0  0  0  0  0  0  0  0  0  0  0
    1.3760    2.3680    0.3020 C   0  0  0  0  0  0  0  0  0  0  0  0
    2.0930    3.6540    0.0280 C   0  0  0  0  0  0  0  0  0  0  0  0
    3.1610    3.6950   -0.8970 C   0  0  0  0  0  0  0  0  0  0  0  0
    1.7390    4.8980    0.6040 C   0  0  0  0  0  0  0  0  0  0  0  0
    3.8300    4.8180   -1.2240 N   0  0  0  0  0  0  0  0  0  0  0  0
    0.7660    5.0570    1.5240 N   0  0  0  0  0  0  0  0  0  0  0  0
    2.4270    6.0620    0.2710 C   0  0  0  0  0  0  0  0  0  0  0  0
    3.4860    6.0060   -0.6690 C   0  0  0  0  0  0  0  0  0  0  0  0
    0.7820    6.6460    1.8990 S   0  0  0  0  0  0  0  0  0  0  0  0
    1.9980    7.1610    0.9320 N   0  0  0  0  0  0  0  0  0  0  0  0
    4.2930    7.1740   -1.0950 C   0  0  0  0  0  0  0  0  0  0  0  0
    5.4480    7.0480   -1.7430 N   0  0  0  0  0  0  0  0  0  0  0  0
    3.7970    8.8400   -0.8120 B   0  0  0  0  0  0  0  0  0  0  0  0
    6.0090    8.2670   -2.0510 C   0  0  0  0  0  0  0  0  0  0  0  0
    5.2550    9.3290   -1.6200 C   0  0  0  0  0  0  0  0  0  0  0  0
    5.6370   10.6930   -1.8650 C   0  0  0  0  0  0  0  0  0  0  0  0
    5.3890   12.0560   -0.7540 C   0  0  0  0  0  0  0  0  0  0  0  0
    6.2680   11.1390   -3.0000 C   0  0  0  0  0  0  0  0  0  0  0  0
    6.1520   13.2030   -1.8770 C   0  0  0  0  0  0  0  0  0  0  0  0
    6.6860   10.2920   -4.4620 S   0  0  0  0  0  0  0  0  0  0  0  0
    6.5230   12.4990   -2.9870 C   0  0  0  0  0  0  0  0  0  0  0  0
    7.2930   11.8600   -5.0820 C   0  0  0  0  0  0  0  0  0  0  0  0
    7.1300   12.9210   -4.1980 C   0  0  0  0  0  0  0  0  0  0  0  0
   -0.4630   -1.0480    0.9030 H   0  0  0  0  0  0  0  0  0  0  0  0
    2.0200   -0.9820    0.7350 H   0  0  0  0  0  0  0  0  0  0  0  0
   -1.7800    1.0520    0.6650 H   0  0  0  0  0  0  0  0  0  0  0  0
    3.1840    1.1690    0.3510 H   0  0  0  0  0  0  0  0  0  0  0  0
   -0.6280    3.2040    0.2640 H   0  0  0  0  0  0  0  0  0  0  0  0
    3.4880    2.7880   -1.4050 H   0  0  0  0  0  0  0  0  0  0  0  0
    6.9600    8.2960   -2.5650 H   0  0  0  0  0  0  0  0  0  0  0  0
    6.2450   14.2560   -1.6510 H   0  0  0  0  0  0  0  0  0  0  0  0
    7.7220   11.8890   -6.0750 H   0  0  0  0  0  0  0  0  0  0  0  0
    7.4180   13.9460   -4.4000 H   0  0  0  0  0  0  0  0  0  0  0  0
  1 29  1  0  0  0  0
  2  1  1  0  0  0  0
  2 30  1  0  0  0  0
  3 31  1  0  0  0  0
  3  1  2  0  0  0  0
  4  2  2  0  0  0  0
  5  3  1  0  0  0  0
  6  5  2  0  0  0  0
  6  4  1  0  0  0  0
  7  6  1  0  0  0  0
  7  9  1  0  0  0  0
  8  7  2  0  0  0  0
  9 11  2  0  0  0  0
 10  8  1  0  0  0  0
 10 13  2  0  0  0  0
 11 14  1  0  0  0  0
 12  9  1  0  0  0  0
 12 15  2  0  0  0  0
 13 12  1  0  0  0  0
 15 14  1  0  0  0  0
 16 18  1  0  0  0  0
 16 13  1  0  0  0  0
 17 16  2  0  0  0  0
 19 17  1  0  0  0  0
 19 20  1  0  0  0  0
 20 18  2  0  0  0  0
 21 20  1  0  0  0  0
 21 22  1  0  0  0  0
 23 26  1  0  0  0  0
 23 21  2  0  0  0  0
 24 36  1  0  0  0  0
 24 22  2  0  0  0  0
 25 23  1  0  0  0  0
 26 24  1  0  0  0  0
 27 25  2  0  0  0  0
 27 28  1  0  0  0  0
 28 26  2  0  0  0  0
 32  4  1  0  0  0  0
 33  5  1  0  0  0  0
 34  8  1  0  0  0  0
 35 19  1  0  0  0  0
 37 27  1  0  0  0  0
 38 28  1  0  0  0  0
M  END
$$$$
scan_sander_basal/min_pdbs/min_pdb_C306_180.pdb
 OpenBabel09051719363D

 38 43  0  0  0  0  0  0  0  0999 V2000
    0.1050   -0.1250    0.8150 C   0  0  0  0  0  0  0  0  0  0  0  0
    1.5060   -0.0440    0.8360 C   0  0  0  0  0  0  0  0  0  0  0  0
   -0.6570    1.0200    0.5420 C   0  0  0  0  0  0  0  0  0  0  0  0
    2.1410    1.1840    0.5890 C   0  0  0  0  0  0  0  0  0  0  0  0
   -0.0190    2.2460    0.2960 C   0  0  0  0  0  0  0  0  0  0  0  0
    1.3930    2.3600    0.3310 C   0  0  0  0  0  0  0  0  0  0  0  0
    2.0920    3.6500    0.0320 C   0  0  0  0  0  0  0  0  0  0  0  0
    3.2340    3.6680   -0.8000 C   0  0  0  0  0  0  0  0  0  0  0  0
    1.6540    4.9150    0.4900 C   0  0  0  0  0  0  0  0  0  0  0  0
    3.8960    4.7900   -1.1430 N   0  0  0  0  0  0  0  0  0  0  0  0
    0.5940    5.0990    1.3030 N   0  0  0  0  0  0  0  0  0  0  0  0
    2.3360    6.0790    0.1430 C   0  0  0  0  0  0  0  0  0  0  0  0
    3.4800    6.0000   -0.6940 C   0  0  0  0  0  0  0  0  0  0  0  0
    0.5190    6.7100    1.5590 S   0  0  0  0  0  0  0  0  0  0  0  0
    1.8040    7.2030    0.6740 N   0  0  0  0  0  0  0  0  0  0  0  0
    4.2880    7.1620   -1.1370 C   0  0  0  0  0  0  0  0  0  0  0  0
    5.3550    7.0310   -1.9240 N   0  0  0  0  0  0  0  0  0  0  0  0
    3.9340    8.8250   -0.6770 B   0  0  0  0  0  0  0  0  0  0  0  0
    5.9460    8.2410   -2.2120 C   0  0  0  0  0  0  0  0  0  0  0  0
    5.3110    9.3030   -1.6210 C   0  0  0  0  0  0  0  0  0  0  0  0
    5.7400   10.6610   -1.8170 C   0  0  0  0  0  0  0  0  0  0  0  0
    5.7040   11.9480   -0.5930 C   0  0  0  0  0  0  0  0  0  0  0  0
    6.2570   11.1600   -2.9870 C   0  0  0  0  0  0  0  0  0  0  0  0
    6.3940   13.1370   -1.7200 C   0  0  0  0  0  0  0  0  0  0  0  0
    6.4500   10.4040   -4.5440 S   0  0  0  0  0  0  0  0  0  0  0  0
    6.5900   12.5000   -2.9120 C   0  0  0  0  0  0  0  0  0  0  0  0
    7.0680   11.9830   -5.1250 C   0  0  0  0  0  0  0  0  0  0  0  0
    7.0730   12.9810   -4.1560 C   0  0  0  0  0  0  0  0  0  0  0  0
   -0.3870   -1.0750    1.0050 H   0  0  0  0  0  0  0  0  0  0  0  0
    2.0990   -0.9310    1.0420 H   0  0  0  0  0  0  0  0  0  0  0  0
   -1.7420    0.9570    0.5150 H   0  0  0  0  0  0  0  0  0  0  0  0
    3.2250    1.2310    0.6130 H   0  0  0  0  0  0  0  0  0  0  0  0
   -0.6250    3.1180    0.0670 H   0  0  0  0  0  0  0  0  0  0  0  0
    3.6280    2.7430   -1.2200 H   0  0  0  0  0  0  0  0  0  0  0  0
    6.8310    8.2600   -2.8340 H   0  0  0  0  0  0  0  0  0  0  0  0
    6.5730   14.1640   -1.4350 H   0  0  0  0  0  0  0  0  0  0  0  0
    7.3790   12.0650   -6.1580 H   0  0  0  0  0  0  0  0  0  0  0  0
    7.3930   14.0030   -4.3220 H   0  0  0  0  0  0  0  0  0  0  0  0
  1  2  1  0  0  0  0
  1 29  1  0  0  0  0
  2 30  1  0  0  0  0
  3  1  2  0  0  0  0
  4 32  1  0  0  0  0
  4  2  2  0  0  0  0
  5  6  2  0  0  0  0
  5  3  1  0  0  0  0
  6  4  1  0  0  0  0
  7  6  1  0  0  0  0
  7  9  1  0  0  0  0
  8  7  2  0  0  0  0
  9 11  2  0  0  0  0
 10  8  1  0  0  0  0
 10 13  2  0  0  0  0
 11 14  1  0  0  0  0
 12  9  1  0  0  0  0
 12 15  2  0  0  0  0
 13 12  1  0  0  0  0
 15 14  1  0  0  0  0
 16 13  1  0  0  0  0
 16 18  1  0  0  0  0
 17 16  2  0  0  0  0
 19 17  1  0  0  0  0
 19 20  1  0  0  0  0
 20 18  2  0  0  0  0
 21 20  1  0  0  0  0
 21 22  1  0  0  0  0
 23 26  1  0  0  0  0
 23 21  2  0  0  0  0
 24 36  1  0  0  0  0
 24 22  2  0  0  0  0
 25 23  1  0  0  0  0
 26 24  1  0  0  0  0
 27 25  2  0  0  0  0
 27 28  1  0  0  0  0
 28 26  2  0  0  0  0
 31  3  1  0  0  0  0
 33  5  1  0  0  0  0
 34  8  1  0  0  0  0
 35 19  1  0  0  0  0
 37 27  1  0  0  0  0
 38 28  1  0  0  0  0
M  END
$$$$
scan_sander_basal/min_pdbs/min_pdb_C306_195.pdb
 OpenBabel09051719363D

 38 43  0  0  0  0  0  0  0  0999 V2000
    0.1540   -0.1280    0.9170 C   0  0  0  0  0  0  0  0  0  0  0  0
    1.5440    0.0030    1.0550 C   0  0  0  0  0  0  0  0  0  0  0  0
   -0.6120    0.9660    0.4910 C   0  0  0  0  0  0  0  0  0  0  0  0
    2.1640    1.2300    0.7710 C   0  0  0  0  0  0  0  0  0  0  0  0
    0.0110    2.1930    0.2090 C   0  0  0  0  0  0  0  0  0  0  0  0
    1.4110    2.3570    0.3580 C   0  0  0  0  0  0  0  0  0  0  0  0
    2.0990    3.6440    0.0240 C   0  0  0  0  0  0  0  0  0  0  0  0
    3.3110    3.6400   -0.7030 C   0  0  0  0  0  0  0  0  0  0  0  0
    1.5870    4.9250    0.3430 C   0  0  0  0  0  0  0  0  0  0  0  0
    3.9730    4.7540   -1.0700 N   0  0  0  0  0  0  0  0  0  0  0  0
    0.4470    5.1350    1.0320 N   0  0  0  0  0  0  0  0  0  0  0  0
    2.2680    6.0810   -0.0270 C   0  0  0  0  0  0  0  0  0  0  0  0
    3.4880    5.9770   -0.7430 C   0  0  0  0  0  0  0  0  0  0  0  0
    0.3000    6.7580    1.1410 S   0  0  0  0  0  0  0  0  0  0  0  0
    1.6520    7.2250    0.3470 N   0  0  0  0  0  0  0  0  0  0  0  0
    4.2930    7.1340   -1.2000 C   0  0  0  0  0  0  0  0  0  0  0  0
    5.2620    7.0180   -2.1050 N   0  0  0  0  0  0  0  0  0  0  0  0
    4.0740    8.7660   -0.5760 B   0  0  0  0  0  0  0  0  0  0  0  0
    5.8760    8.2220   -2.3680 C   0  0  0  0  0  0  0  0  0  0  0  0
    5.3620    9.2600   -1.6330 C   0  0  0  0  0  0  0  0  0  0  0  0
    5.8310   10.6110   -1.7780 C   0  0  0  0  0  0  0  0  0  0  0  0
    5.9920   11.7990   -0.4670 C   0  0  0  0  0  0  0  0  0  0  0  0
    6.2390   11.1780   -2.9590 C   0  0  0  0  0  0  0  0  0  0  0  0
    6.6100   13.0440   -1.5760 C   0  0  0  0  0  0  0  0  0  0  0  0
    6.2240   10.5390   -4.5790 S   0  0  0  0  0  0  0  0  0  0  0  0
    6.6420   12.4940   -2.8250 C   0  0  0  0  0  0  0  0  0  0  0  0
    6.8500   12.1310   -5.1090 C   0  0  0  0  0  0  0  0  0  0  0  0
    7.0090   13.0500   -4.0780 C   0  0  0  0  0  0  0  0  0  0  0  0
   -0.3270   -1.0780    1.1350 H   0  0  0  0  0  0  0  0  0  0  0  0
    2.1400   -0.8460    1.3800 H   0  0  0  0  0  0  0  0  0  0  0  0
   -1.6880    0.8640    0.3730 H   0  0  0  0  0  0  0  0  0  0  0  0
    3.2410    1.3160    0.8860 H   0  0  0  0  0  0  0  0  0  0  0  0
   -0.5950    3.0230   -0.1400 H   0  0  0  0  0  0  0  0  0  0  0  0
    3.7640    2.6990   -1.0170 H   0  0  0  0  0  0  0  0  0  0  0  0
    6.6890    8.2550   -3.0820 H   0  0  0  0  0  0  0  0  0  0  0  0
    6.8690   14.0370   -1.2390 H   0  0  0  0  0  0  0  0  0  0  0  0
    7.0490   12.2810   -6.1630 H   0  0  0  0  0  0  0  0  0  0  0  0
    7.3580   14.0690   -4.2040 H   0  0  0  0  0  0  0  0  0  0  0  0
  1  2  1  0  0  0  0
  1 29  1  0  0  0  0
  2 30  1  0  0  0  0
  3  1  2  0  0  0  0
  4 32  1  0  0  0  0
  4  2  2  0  0  0  0
  5  6  2  0  0  0  0
  5  3  1  0  0  0  0
  6  4  1  0  0  0  0
  7  9  1  0  0  0  0
  7  6  1  0  0  0  0
  8  7  2  0  0  0  0
  9 11  2  0  0  0  0
 10 13  2  0  0  0  0
 10  8  1  0  0  0  0
 11 14  1  0  0  0  0
 12  9  1  0  0  0  0
 12 15  2  0  0  0  0
 13 12  1  0  0  0  0
 15 14  1  0  0  0  0
 16 13  1  0  0  0  0
 16 18  1  0  0  0  0
 17 16  2  0  0  0  0
 19 17  1  0  0  0  0
 19 20  1  0  0  0  0
 20 18  2  0  0  0  0
 21 20  1  0  0  0  0
 21 22  1  0  0  0  0
 23 26  1  0  0  0  0
 23 21  2  0  0  0  0
 24 36  1  0  0  0  0
 24 22  2  0  0  0  0
 25 23  1  0  0  0  0
 26 24  1  0  0  0  0
 27 25  2  0  0  0  0
 27 28  1  0  0  0  0
 28 26  2  0  0  0  0
 31  3  1  0  0  0  0
 33  5  1  0  0  0  0
 34  8  1  0  0  0  0
 35 19  1  0  0  0  0
 37 27  1  0  0  0  0
 38 28  1  0  0  0  0
M  END
$$$$
scan_sander_basal/min_pdbs/min_pdb_C306_210.pdb
 OpenBabel09051719363D

 38 43  0  0  0  0  0  0  0  0999 V2000
    0.1830   -0.1110    1.0200 C   0  0  0  0  0  0  0  0  0  0  0  0
    1.5490    0.0740    1.2790 C   0  0  0  0  0  0  0  0  0  0  0  0
   -0.5630    0.9230    0.4340 C   0  0  0  0  0  0  0  0  0  0  0  0
    2.1660    1.2940    0.9570 C   0  0  0  0  0  0  0  0  0  0  0  0
    0.0570    2.1410    0.1130 C   0  0  0  0  0  0  0  0  0  0  0  0
    1.4300    2.3600    0.3830 C   0  0  0  0  0  0  0  0  0  0  0  0
    2.1180    3.6380    0.0120 C   0  0  0  0  0  0  0  0  0  0  0  0
    3.3960    3.6140   -0.5930 C   0  0  0  0  0  0  0  0  0  0  0  0
    1.5450    4.9230    0.1750 C   0  0  0  0  0  0  0  0  0  0  0  0
    4.0660    4.7160   -0.9850 N   0  0  0  0  0  0  0  0  0  0  0  0
    0.3370    5.1560    0.7280 N   0  0  0  0  0  0  0  0  0  0  0  0
    2.2330    6.0650   -0.2200 C   0  0  0  0  0  0  0  0  0  0  0  0
    3.5180    5.9410   -0.8010 C   0  0  0  0  0  0  0  0  0  0  0  0
    0.1460    6.7780    0.6790 S   0  0  0  0  0  0  0  0  0  0  0  0
    1.5620    7.2200   -0.0130 N   0  0  0  0  0  0  0  0  0  0  0  0
    4.3160    7.0910   -1.2680 C   0  0  0  0  0  0  0  0  0  0  0  0
    5.1800    7.0090   -2.2760 N   0  0  0  0  0  0  0  0  0  0  0  0
    4.2220    8.6700   -0.4990 B   0  0  0  0  0  0  0  0  0  0  0  0
    5.8070    8.2120   -2.5120 C   0  0  0  0  0  0  0  0  0  0  0  0
    5.4090    9.2050   -1.6510 C   0  0  0  0  0  0  0  0  0  0  0  0
    5.9100   10.5490   -1.7470 C   0  0  0  0  0  0  0  0  0  0  0  0
    6.2510   11.6290   -0.3780 C   0  0  0  0  0  0  0  0  0  0  0  0
    6.2120   11.1920   -2.9210 C   0  0  0  0  0  0  0  0  0  0  0  0
    6.7930   12.9360   -1.4540 C   0  0  0  0  0  0  0  0  0  0  0  0
    6.0030   10.6790   -4.5710 S   0  0  0  0  0  0  0  0  0  0  0  0
    6.6750   12.4830   -2.7360 C   0  0  0  0  0  0  0  0  0  0  0  0
    6.6270   12.2890   -5.0500 C   0  0  0  0  0  0  0  0  0  0  0  0
    6.9270   13.1220   -3.9770 C   0  0  0  0  0  0  0  0  0  0  0  0
   -0.2950   -1.0540    1.2670 H   0  0  0  0  0  0  0  0  0  0  0  0
    2.1300   -0.7270    1.7280 H   0  0  0  0  0  0  0  0  0  0  0  0
   -1.6190    0.7780    0.2220 H   0  0  0  0  0  0  0  0  0  0  0  0
    3.2240    1.4220    1.1670 H   0  0  0  0  0  0  0  0  0  0  0  0
   -0.5310    2.9220   -0.3580 H   0  0  0  0  0  0  0  0  0  0  0  0
    3.8980    2.6660   -0.7850 H   0  0  0  0  0  0  0  0  0  0  0  0
    6.5420    8.2770   -3.3030 H   0  0  0  0  0  0  0  0  0  0  0  0
    7.1210   13.8940   -1.0760 H   0  0  0  0  0  0  0  0  0  0  0  0
    6.7190   12.5120   -6.1050 H   0  0  0  0  0  0  0  0  0  0  0  0
    7.2970   14.1370   -4.0660 H   0  0  0  0  0  0  0  0  0  0  0  0
  1 29  1  0  0  0  0
  1  2  1  0  0  0  0
  2 30  1  0  0  0  0
  3  1  2  0  0  0  0
  4 32  1  0  0  0  0
  4  2  2  0  0  0  0
  5  6  2  0  0  0  0
  5  3  1  0  0  0  0
  6  4  1  0  0  0  0
  7  9  1  0  0  0  0
  7  6  1  0  0  0  0
  8  7  2  0  0  0  0
  9 11  2  0  0  0  0
 10 13  2  0  0  0  0
 10  8  1  0  0  0  0
 12 15  2  0  0  0  0
 12  9  1  0  0  0  0
 13 12  1  0  0  0  0
 14 11  1  0  0  0  0
 15 14  1  0  0  0  0
 16 13  1  0  0  0  0
 16 18  1  0  0  0  0
 17 16  2  0  0  0  0
 19 17  1  0  0  0  0
 19 20  1  0  0  0  0
 20 18  2  0  0  0  0
 21 20  1  0  0  0  0
 21 22  1  0  0  0  0
 23 26  1  0  0  0  0
 23 21  2  0  0  0  0
 24 36  1  0  0  0  0
 24 22  2  0  0  0  0
 25 23  1  0  0  0  0
 26 24  1  0  0  0  0
 27 25  2  0  0  0  0
 27 28  1  0  0  0  0
 28 26  2  0  0  0  0
 31  3  1  0  0  0  0
 33  5  1  0  0  0  0
 34  8  1  0  0  0  0
 35 19  1  0  0  0  0
 37 27  1  0  0  0  0
 38 28  1  0  0  0  0
M  END
$$$$
scan_sander_basal/min_pdbs/min_pdb_C306_225.pdb
 OpenBabel09051719363D

 38 43  0  0  0  0  0  0  0  0999 V2000
    0.2030   -0.0820    1.1200 C   0  0  0  0  0  0  0  0  0  0  0  0
    1.5330    0.1640    1.4920 C   0  0  0  0  0  0  0  0  0  0  0  0
   -0.5060    0.8800    0.3840 C   0  0  0  0  0  0  0  0  0  0  0  0
    2.1510    1.3720    1.1320 C   0  0  0  0  0  0  0  0  0  0  0  0
    0.1150    2.0870    0.0260 C   0  0  0  0  0  0  0  0  0  0  0  0
    1.4510    2.3670    0.4060 C   0  0  0  0  0  0  0  0  0  0  0  0
    2.1420    3.6320   -0.0020 C   0  0  0  0  0  0  0  0  0  0  0  0
    3.4740    3.5990   -0.4800 C   0  0  0  0  0  0  0  0  0  0  0  0
    1.5250    4.9070    0.0020 C   0  0  0  0  0  0  0  0  0  0  0  0
    4.1540    4.6870   -0.8960 N   0  0  0  0  0  0  0  0  0  0  0  0
    0.2660    5.1520    0.4200 N   0  0  0  0  0  0  0  0  0  0  0  0
    2.2220    6.0320   -0.4190 C   0  0  0  0  0  0  0  0  0  0  0  0
    3.5540    5.9000   -0.8670 C   0  0  0  0  0  0  0  0  0  0  0  0
    0.0530    6.7610    0.2220 S   0  0  0  0  0  0  0  0  0  0  0  0
    1.5200    7.1860   -0.3670 N   0  0  0  0  0  0  0  0  0  0  0  0
    4.3430    7.0440   -1.3410 C   0  0  0  0  0  0  0  0  0  0  0  0
    5.0870    7.0110   -2.4420 N   0  0  0  0  0  0  0  0  0  0  0  0
    4.3760    8.5550   -0.4470 B   0  0  0  0  0  0  0  0  0  0  0  0
    5.7230    8.2140   -2.6520 C   0  0  0  0  0  0  0  0  0  0  0  0
    5.4510    9.1460   -1.6800 C   0  0  0  0  0  0  0  0  0  0  0  0
    5.9820   10.4810   -1.7300 C   0  0  0  0  0  0  0  0  0  0  0  0
    6.5020   11.4440   -0.3300 C   0  0  0  0  0  0  0  0  0  0  0  0
    6.1790   11.2060   -2.8790 C   0  0  0  0  0  0  0  0  0  0  0  0
    6.9690   12.8170   -1.3580 C   0  0  0  0  0  0  0  0  0  0  0  0
    5.7780   10.8270   -4.5300 S   0  0  0  0  0  0  0  0  0  0  0  0
    6.6990   12.4670   -2.6500 C   0  0  0  0  0  0  0  0  0  0  0  0
    6.3990   12.4540   -4.9530 C   0  0  0  0  0  0  0  0  0  0  0  0
    6.8380   13.1940   -3.8600 C   0  0  0  0  0  0  0  0  0  0  0  0
   -0.2770   -1.0170    1.3970 H   0  0  0  0  0  0  0  0  0  0  0  0
    2.0850   -0.5820    2.0580 H   0  0  0  0  0  0  0  0  0  0  0  0
   -1.5330    0.6870    0.0850 H   0  0  0  0  0  0  0  0  0  0  0  0
    3.1800    1.5480    1.4300 H   0  0  0  0  0  0  0  0  0  0  0  0
   -0.4420    2.8110   -0.5620 H   0  0  0  0  0  0  0  0  0  0  0  0
    4.0140    2.6550   -0.5440 H   0  0  0  0  0  0  0  0  0  0  0  0
    6.3710    8.3230   -3.5110 H   0  0  0  0  0  0  0  0  0  0  0  0
    7.3660   13.7340   -0.9480 H   0  0  0  0  0  0  0  0  0  0  0  0
    6.3850   12.7570   -5.9920 H   0  0  0  0  0  0  0  0  0  0  0  0
    7.2300   14.2030   -3.9130 H   0  0  0  0  0  0  0  0  0  0  0  0
  1 29  1  0  0  0  0
  1  2  2  0  0  0  0
  2 30  1  0  0  0  0
  3  1  1  0  0  0  0
  4 32  1  0  0  0  0
  4  2  1  0  0  0  0
  5  3  2  0  0  0  0
  5  6  1  0  0  0  0
  6  4  2  0  0  0  0
  7  9  1  0  0  0  0
  7  6  1  0  0  0  0
  8  7  2  0  0  0  0
  9 11  2  0  0  0  0
 10 13  2  0  0  0  0
 10  8  1  0  0  0  0
 12 15  2  0  0  0  0
 12  9  1  0  0  0  0
 13 12  1  0  0  0  0
 14 11  1  0  0  0  0
 15 14  1  0  0  0  0
 16 13  1  0  0  0  0
 16 18  1  0  0  0  0
 17 16  2  0  0  0  0
 19 17  1  0  0  0  0
 19 20  1  0  0  0  0
 20 18  2  0  0  0  0
 21 20  1  0  0  0  0
 21 22  1  0  0  0  0
 23 26  1  0  0  0  0
 23 21  2  0  0  0  0
 24 36  1  0  0  0  0
 24 22  2  0  0  0  0
 25 23  1  0  0  0  0
 26 24  1  0  0  0  0
 27 25  2  0  0  0  0
 27 28  1  0  0  0  0
 28 26  2  0  0  0  0
 31  3  1  0  0  0  0
 33  5  1  0  0  0  0
 34  8  1  0  0  0  0
 35 19  1  0  0  0  0
 37 27  1  0  0  0  0
 38 28  1  0  0  0  0
M  END
$$$$
scan_sander_basal/min_pdbs/min_pdb_C306_240.pdb
 OpenBabel09051719363D

 38 43  0  0  0  0  0  0  0  0999 V2000
    0.2310   -0.0550    1.2170 C   0  0  0  0  0  0  0  0  0  0  0  0
    1.5180    0.2590    1.6780 C   0  0  0  0  0  0  0  0  0  0  0  0
   -0.4370    0.8270    0.3550 C   0  0  0  0  0  0  0  0  0  0  0  0
    2.1330    1.4570    1.2800 C   0  0  0  0  0  0  0  0  0  0  0  0
    0.1810    2.0250   -0.0410 C   0  0  0  0  0  0  0  0  0  0  0  0
    1.4720    2.3740    0.4270 C   0  0  0  0  0  0  0  0  0  0  0  0
    2.1610    3.6270   -0.0170 C   0  0  0  0  0  0  0  0  0  0  0  0
    3.5310    3.6030   -0.3800 C   0  0  0  0  0  0  0  0  0  0  0  0
    1.5120    4.8780   -0.1590 C   0  0  0  0  0  0  0  0  0  0  0  0
    4.2160    4.6790   -0.8200 N   0  0  0  0  0  0  0  0  0  0  0  0
    0.2190    5.1170    0.1410 N   0  0  0  0  0  0  0  0  0  0  0  0
    2.2120    5.9890   -0.6070 C   0  0  0  0  0  0  0  0  0  0  0  0
    3.5760    5.8640   -0.9370 C   0  0  0  0  0  0  0  0  0  0  0  0
   -0.0110    6.7040   -0.1870 S   0  0  0  0  0  0  0  0  0  0  0  0
    1.4890    7.1280   -0.6870 N   0  0  0  0  0  0  0  0  0  0  0  0
    4.3550    7.0060   -1.4200 C   0  0  0  0  0  0  0  0  0  0  0  0
    4.9540    7.0380   -2.6030 N   0  0  0  0  0  0  0  0  0  0  0  0
    4.5380    8.4350   -0.4200 B   0  0  0  0  0  0  0  0  0  0  0  0
    5.6060    8.2360   -2.7930 C   0  0  0  0  0  0  0  0  0  0  0  0
    5.4840    9.0930   -1.7250 C   0  0  0  0  0  0  0  0  0  0  0  0
    6.0560   10.4120   -1.7330 C   0  0  0  0  0  0  0  0  0  0  0  0
    6.7720   11.2410   -0.3340 C   0  0  0  0  0  0  0  0  0  0  0  0
    6.1450   11.2230   -2.8370 C   0  0  0  0  0  0  0  0  0  0  0  0
    7.1680   12.6800   -1.3000 C   0  0  0  0  0  0  0  0  0  0  0  0
    5.5390   10.9930   -4.4530 S   0  0  0  0  0  0  0  0  0  0  0  0
    6.7370   12.4450   -2.5740 C   0  0  0  0  0  0  0  0  0  0  0  0
    6.1690   12.6310   -4.8180 C   0  0  0  0  0  0  0  0  0  0  0  0
    6.7610   13.2650   -3.7310 C   0  0  0  0  0  0  0  0  0  0  0  0
   -0.2460   -0.9820    1.5230 H   0  0  0  0  0  0  0  0  0  0  0  0
    2.0390   -0.4260    2.3420 H   0  0  0  0  0  0  0  0  0  0  0  0
   -1.4300    0.5810   -0.0120 H   0  0  0  0  0  0  0  0  0  0  0  0
    3.1280    1.6860    1.6490 H   0  0  0  0  0  0  0  0  0  0  0  0
   -0.3420    2.6860   -0.7240 H   0  0  0  0  0  0  0  0  0  0  0  0
    4.1000    2.6750   -0.3250 H   0  0  0  0  0  0  0  0  0  0  0  0
    6.1520    8.3990   -3.7130 H   0  0  0  0  0  0  0  0  0  0  0  0
    7.6460   13.5480   -0.8690 H   0  0  0  0  0  0  0  0  0  0  0  0
    6.0460   13.0180   -5.8210 H   0  0  0  0  0  0  0  0  0  0  0  0
    7.1830   14.2640   -3.7510 H   0  0  0  0  0  0  0  0  0  0  0  0
  1 29  1  0  0  0  0
  1  2  2  0  0  0  0
  2 30  1  0  0  0  0
  3  1  1  0  0  0  0
  4 32  1  0  0  0  0
  4  2  1  0  0  0  0
  5  3  2  0  0  0  0
  5  6  1  0  0  0  0
  6  4  2  0  0  0  0
  7  6  1  0  0  0  0
  8 34  1  0  0  0  0
  8  7  2  0  0  0  0
  9  7  1  0  0  0  0
  9 11  2  0  0  0  0
 10  8  1  0  0  0  0
 12  9  1  0  0  0  0
 13 10  2  0  0  0  0
 13 12  1  0  0  0  0
 14 11  1  0  0  0  0
 15 12  2  0  0  0  0
 15 14  1  0  0  0  0
 16 13  1  0  0  0  0
 16 18  1  0  0  0  0
 17 16  2  0  0  0  0
 19 17  1  0  0  0  0
 19 20  1  0  0  0  0
 20 18  2  0  0  0  0
 21 20  1  0  0  0  0
 21 22  1  0  0  0  0
 23 26  1  0  0  0  0
 23 21  2  0  0  0  0
 24 36  1  0  0  0  0
 24 22  2  0  0  0  0
 25 23  1  0  0  0  0
 26 24  1  0  0  0  0
 27 25  2  0  0  0  0
 27 28  1  0  0  0  0
 28 26  2  0  0  0  0
 31  3  1  0  0  0  0
 33  5  1  0  0  0  0
 35 19  1  0  0  0  0
 37 27  1  0  0  0  0
 38 28  1  0  0  0  0
M  END
$$$$
scan_sander_basal/min_pdbs/min_pdb_C306_255.pdb
 OpenBabel09051719363D

 38 43  0  0  0  0  0  0  0  0999 V2000
    0.2720   -0.0400    1.2980 C   0  0  0  0  0  0  0  0  0  0  0  0
    1.5100    0.3490    1.8300 C   0  0  0  0  0  0  0  0  0  0  0  0
   -0.3570    0.7610    0.3330 C   0  0  0  0  0  0  0  0  0  0  0  0
    2.1150    1.5420    1.4010 C   0  0  0  0  0  0  0  0  0  0  0  0
    0.2500    1.9540   -0.0930 C   0  0  0  0  0  0  0  0  0  0  0  0
    1.4910    2.3780    0.4430 C   0  0  0  0  0  0  0  0  0  0  0  0
    2.1710    3.6250   -0.0290 C   0  0  0  0  0  0  0  0  0  0  0  0
    3.5640    3.6300   -0.2900 C   0  0  0  0  0  0  0  0  0  0  0  0
    1.4930    4.8400   -0.3000 C   0  0  0  0  0  0  0  0  0  0  0  0
    4.2450    4.7010   -0.7500 N   0  0  0  0  0  0  0  0  0  0  0  0
    0.1750    5.0520   -0.1050 N   0  0  0  0  0  0  0  0  0  0  0  0
    2.1880    5.9440   -0.7700 C   0  0  0  0  0  0  0  0  0  0  0  0
    3.5730    5.8480   -0.9950 C   0  0  0  0  0  0  0  0  0  0  0  0
   -0.0760    6.6090   -0.5470 S   0  0  0  0  0  0  0  0  0  0  0  0
    1.4420    7.0530   -0.9670 N   0  0  0  0  0  0  0  0  0  0  0  0
    4.3410    6.9890   -1.4870 C   0  0  0  0  0  0  0  0  0  0  0  0
    4.7810    7.0960   -2.7340 N   0  0  0  0  0  0  0  0  0  0  0  0
    4.7100    8.3210   -0.4120 B   0  0  0  0  0  0  0  0  0  0  0  0
    5.4560    8.2830   -2.9140 C   0  0  0  0  0  0  0  0  0  0  0  0
    5.5110    9.0520   -1.7750 C   0  0  0  0  0  0  0  0  0  0  0  0
    6.1370   10.3460   -1.7550 C   0  0  0  0  0  0  0  0  0  0  0  0
    7.0620   11.0290   -0.4020 C   0  0  0  0  0  0  0  0  0  0  0  0
    6.1200   11.2420   -2.7940 C   0  0  0  0  0  0  0  0  0  0  0  0
    7.3970   12.5290   -1.2950 C   0  0  0  0  0  0  0  0  0  0  0  0
    5.3040   11.1700   -4.3310 S   0  0  0  0  0  0  0  0  0  0  0  0
    6.7960   12.4170   -2.5160 C   0  0  0  0  0  0  0  0  0  0  0  0
    5.9560   12.8080   -4.6460 C   0  0  0  0  0  0  0  0  0  0  0  0
    6.7100   13.3290   -3.6000 C   0  0  0  0  0  0  0  0  0  0  0  0
   -0.1970   -0.9630    1.6280 H   0  0  0  0  0  0  0  0  0  0  0  0
    2.0010   -0.2730    2.5740 H   0  0  0  0  0  0  0  0  0  0  0  0
   -1.3110    0.4570   -0.0880 H   0  0  0  0  0  0  0  0  0  0  0  0
    3.0720    1.8300    1.8260 H   0  0  0  0  0  0  0  0  0  0  0  0
   -0.2410    2.5520   -0.8540 H   0  0  0  0  0  0  0  0  0  0  0  0
    4.1570    2.7290   -0.1320 H   0  0  0  0  0  0  0  0  0  0  0  0
    5.8860    8.5030   -3.8820 H   0  0  0  0  0  0  0  0  0  0  0  0
    7.9650   13.3410   -0.8650 H   0  0  0  0  0  0  0  0  0  0  0  0
    5.7240   13.2820   -5.5910 H   0  0  0  0  0  0  0  0  0  0  0  0
    7.1710   14.3100   -3.5970 H   0  0  0  0  0  0  0  0  0  0  0  0
  1 29  1  0  0  0  0
  1  2  2  0  0  0  0
  2 30  1  0  0  0  0
  3  1  1  0  0  0  0
  4 32  1  0  0  0  0
  4  2  1  0  0  0  0
  5  3  2  0  0  0  0
  5  6  1  0  0  0  0
  6  4  2  0  0  0  0
  7  6  1  0  0  0  0
  8 34  1  0  0  0  0
  8  7  2  0  0  0  0
  9 11  2  0  0  0  0
  9  7  1  0  0  0  0
 10  8  1  0  0  0  0
 12  9  1  0  0  0  0
 13 12  1  0  0  0  0
 13 10  2  0  0  0  0
 14 11  1  0  0  0  0
 15 12  2  0  0  0  0
 15 14  1  0  0  0  0
 16 13  1  0  0  0  0
 16 18  1  0  0  0  0
 17 16  2  0  0  0  0
 19 17  1  0  0  0  0
 19 20  1  0  0  0  0
 20 21  1  0  0  0  0
 20 18  2  0  0  0  0
 21 22  1  0  0  0  0
 23 26  1  0  0  0  0
 23 21  2  0  0  0  0
 24 36  1  0  0  0  0
 24 22  2  0  0  0  0
 25 23  1  0  0  0  0
 26 24  1  0  0  0  0
 27 25  2  0  0  0  0
 27 28  1  0  0  0  0
 28 38  1  0  0  0  0
 28 26  2  0  0  0  0
 31  3  1  0  0  0  0
 33  5  1  0  0  0  0
 35 19  1  0  0  0  0
 37 27  1  0  0  0  0
M  END
$$$$
scan_sander_basal/min_pdbs/min_pdb_C306_270.pdb
 OpenBabel09051719363D

 38 43  0  0  0  0  0  0  0  0999 V2000
    0.3270   -0.0400    1.3620 C   0  0  0  0  0  0  0  0  0  0  0  0
    1.5070    0.4330    1.9550 C   0  0  0  0  0  0  0  0  0  0  0  0
   -0.2620    0.6780    0.3110 C   0  0  0  0  0  0  0  0  0  0  0  0
    2.0930    1.6260    1.5010 C   0  0  0  0  0  0  0  0  0  0  0  0
    0.3250    1.8710   -0.1410 C   0  0  0  0  0  0  0  0  0  0  0  0
    1.5060    2.3800    0.4550 C   0  0  0  0  0  0  0  0  0  0  0  0
    2.1670    3.6280   -0.0410 C   0  0  0  0  0  0  0  0  0  0  0  0
    3.5750    3.6800   -0.2040 C   0  0  0  0  0  0  0  0  0  0  0  0
    1.4620    4.7940   -0.4280 C   0  0  0  0  0  0  0  0  0  0  0  0
    4.2430    4.7530   -0.6770 N   0  0  0  0  0  0  0  0  0  0  0  0
    0.1260    4.9590   -0.3370 N   0  0  0  0  0  0  0  0  0  0  0  0
    2.1430    5.9000   -0.9130 C   0  0  0  0  0  0  0  0  0  0  0  0
    3.5440    5.8520   -1.0370 C   0  0  0  0  0  0  0  0  0  0  0  0
   -0.1550    6.4770   -0.8820 S   0  0  0  0  0  0  0  0  0  0  0  0
    1.3710    6.9640   -1.2210 N   0  0  0  0  0  0  0  0  0  0  0  0
    4.2990    6.9950   -1.5400 C   0  0  0  0  0  0  0  0  0  0  0  0
    4.5750    7.1860   -2.8230 N   0  0  0  0  0  0  0  0  0  0  0  0
    4.8730    8.2180   -0.4270 B   0  0  0  0  0  0  0  0  0  0  0  0
    5.2810    8.3550   -3.0020 C   0  0  0  0  0  0  0  0  0  0  0  0
    5.5250    9.0240   -1.8260 C   0  0  0  0  0  0  0  0  0  0  0  0
    6.2150   10.2850   -1.7920 C   0  0  0  0  0  0  0  0  0  0  0  0
    7.3440   10.8160   -0.5280 C   0  0  0  0  0  0  0  0  0  0  0  0
    6.1090   11.2640   -2.7490 C   0  0  0  0  0  0  0  0  0  0  0  0
    7.6370   12.3690   -1.3430 C   0  0  0  0  0  0  0  0  0  0  0  0
    5.0950   11.3520   -4.1620 S   0  0  0  0  0  0  0  0  0  0  0  0
    6.8760   12.3820   -2.4760 C   0  0  0  0  0  0  0  0  0  0  0  0
    5.7850   12.9820   -4.4370 C   0  0  0  0  0  0  0  0  0  0  0  0
    6.6960   13.3830   -3.4660 C   0  0  0  0  0  0  0  0  0  0  0  0
   -0.1260   -0.9630    1.7110 H   0  0  0  0  0  0  0  0  0  0  0  0
    1.9680   -0.1250    2.7660 H   0  0  0  0  0  0  0  0  0  0  0  0
   -1.1710    0.3090   -0.1570 H   0  0  0  0  0  0  0  0  0  0  0  0
    3.0040    1.9800    1.9740 H   0  0  0  0  0  0  0  0  0  0  0  0
   -0.1340    2.4040   -0.9680 H   0  0  0  0  0  0  0  0  0  0  0  0
    4.1900    2.8160    0.0480 H   0  0  0  0  0  0  0  0  0  0  0  0
    5.5910    8.6360   -3.9990 H   0  0  0  0  0  0  0  0  0  0  0  0
    8.2980   13.1190   -0.9320 H   0  0  0  0  0  0  0  0  0  0  0  0
    5.4560   13.5410   -5.3030 H   0  0  0  0  0  0  0  0  0  0  0  0
    7.2040   14.3410   -3.4510 H   0  0  0  0  0  0  0  0  0  0  0  0
  1 29  1  0  0  0  0
  1  2  2  0  0  0  0
  2 30  1  0  0  0  0
  3  1  1  0  0  0  0
  4  2  1  0  0  0  0
  4 32  1  0  0  0  0
  5  3  2  0  0  0  0
  5  6  1  0  0  0  0
  6  4  2  0  0  0  0
  7  6  1  0  0  0  0
  8  7  2  0  0  0  0
  8 34  1  0  0  0  0
  9 11  2  0  0  0  0
  9  7  1  0  0  0  0
 10  8  1  0  0  0  0
 12  9  1  0  0  0  0
 13 12  1  0  0  0  0
 13 10  2  0  0  0  0
 14 11  1  0  0  0  0
 15 12  2  0  0  0  0
 15 14  1  0  0  0  0
 16 13  1  0  0  0  0
 16 18  1  0  0  0  0
 17 16  2  0  0  0  0
 19 17  1  0  0  0  0
 19 20  1  0  0  0  0
 20 21  1  0  0  0  0
 20 18  2  0  0  0  0
 21 22  1  0  0  0  0
 23 26  1  0  0  0  0
 23 21  2  0  0  0  0
 24 36  1  0  0  0  0
 24 22  2  0  0  0  0
 25 23  1  0  0  0  0
 26 24  1  0  0  0  0
 27 25  2  0  0  0  0
 27 28  1  0  0  0  0
 28 38  1  0  0  0  0
 28 26  2  0  0  0  0
 31  3  1  0  0  0  0
 33  5  1  0  0  0  0
 35 19  1  0  0  0  0
 37 27  1  0  0  0  0
M  END
$$$$
scan_sander_basal/min_pdbs/min_pdb_C306_285.pdb
 OpenBabel09051719363D

 38 43  0  0  0  0  0  0  0  0999 V2000
   -0.3750    0.2100    0.9280 C   0  0  0  0  0  0  0  0  0  0  0  0
   -0.3680    0.6810   -0.3930 C   0  0  0  0  0  0  0  0  0  0  0  0
    0.3450    0.8950    1.9180 C   0  0  0  0  0  0  0  0  0  0  0  0
    0.3630    1.8340   -0.7230 C   0  0  0  0  0  0  0  0  0  0  0  0
    1.0760    2.0470    1.5850 C   0  0  0  0  0  0  0  0  0  0  0  0
    1.1140    2.5320    0.2540 C   0  0  0  0  0  0  0  0  0  0  0  0
    1.8540    3.7810   -0.1100 C   0  0  0  0  0  0  0  0  0  0  0  0
    1.2660    4.7400   -0.9740 C   0  0  0  0  0  0  0  0  0  0  0  0
    3.1300    4.1210    0.4040 C   0  0  0  0  0  0  0  0  0  0  0  0
    1.8510    5.9050   -1.3230 N   0  0  0  0  0  0  0  0  0  0  0  0
    3.8680    3.3430    1.2220 N   0  0  0  0  0  0  0  0  0  0  0  0
    3.7380    5.3160    0.0470 C   0  0  0  0  0  0  0  0  0  0  0  0
    3.0700    6.2010   -0.8200 C   0  0  0  0  0  0  0  0  0  0  0  0
    5.2480    4.1860    1.4820 S   0  0  0  0  0  0  0  0  0  0  0  0
    4.9660    5.5160    0.5720 N   0  0  0  0  0  0  0  0  0  0  0  0
    3.6670    7.4720   -1.2210 C   0  0  0  0  0  0  0  0  0  0  0  0
    3.7450    8.5320   -0.4270 N   0  0  0  0  0  0  0  0  0  0  0  0
    4.3410    7.6480   -2.8270 B   0  0  0  0  0  0  0  0  0  0  0  0
    4.3690    9.5780   -1.0690 C   0  0  0  0  0  0  0  0  0  0  0  0
    4.7470    9.2740   -2.3560 C   0  0  0  0  0  0  0  0  0  0  0  0
    5.4460   10.2140   -3.1890 C   0  0  0  0  0  0  0  0  0  0  0  0
    5.2330   10.4050   -4.9420 C   0  0  0  0  0  0  0  0  0  0  0  0
    6.3780   11.1180   -2.7430 C   0  0  0  0  0  0  0  0  0  0  0  0
    6.4310   11.7150   -5.0180 C   0  0  0  0  0  0  0  0  0  0  0  0
    7.0620   11.3400   -1.1570 S   0  0  0  0  0  0  0  0  0  0  0  0
    6.9030   11.9070   -3.7510 C   0  0  0  0  0  0  0  0  0  0  0  0
    8.0880   12.6170   -1.8840 C   0  0  0  0  0  0  0  0  0  0  0  0
    7.8950   12.7900   -3.2500 C   0  0  0  0  0  0  0  0  0  0  0  0
   -0.9400   -0.6810    1.1850 H   0  0  0  0  0  0  0  0  0  0  0  0
   -0.9290    0.1550   -1.1600 H   0  0  0  0  0  0  0  0  0  0  0  0
    0.3340    0.5370    2.9440 H   0  0  0  0  0  0  0  0  0  0  0  0
    0.3600    2.1840   -1.7510 H   0  0  0  0  0  0  0  0  0  0  0  0
    1.6120    2.5750    2.3670 H   0  0  0  0  0  0  0  0  0  0  0  0
    0.2750    4.5670   -1.3930 H   0  0  0  0  0  0  0  0  0  0  0  0
    4.4920   10.5180   -0.5480 H   0  0  0  0  0  0  0  0  0  0  0  0
    6.6940   12.2030   -5.9460 H   0  0  0  0  0  0  0  0  0  0  0  0
    8.7790   13.1490   -1.2430 H   0  0  0  0  0  0  0  0  0  0  0  0
    8.4340   13.4990   -3.8670 H   0  0  0  0  0  0  0  0  0  0  0  0
  1 29  1  0  0  0  0
  1  3  2  0  0  0  0
  2  1  1  0  0  0  0
  3 31  1  0  0  0  0
  4  2  2  0  0  0  0
  4  6  1  0  0  0  0
  5  3  1  0  0  0  0
  5 33  1  0  0  0  0
  6  5  2  0  0  0  0
  7  6  1  0  0  0  0
  7  9  1  0  0  0  0
  8  7  2  0  0  0  0
  9 11  2  0  0  0  0
 10  8  1  0  0  0  0
 10 13  2  0  0  0  0
 11 14  1  0  0  0  0
 12  9  1  0  0  0  0
 12 15  2  0  0  0  0
 13 12  1  0  0  0  0
 15 14  1  0  0  0  0
 16 13  1  0  0  0  0
 16 17  2  0  0  0  0
 18 20  2  0  0  0  0
 18 16  1  0  0  0  0
 19 35  1  0  0  0  0
 19 17  1  0  0  0  0
 20 19  1  0  0  0  0
 21 23  2  0  0  0  0
 21 20  1  0  0  0  0
 22 21  1  0  0  0  0
 23 25  1  0  0  0  0
 24 22  2  0  0  0  0
 24 26  1  0  0  0  0
 26 28  2  0  0  0  0
 26 23  1  0  0  0  0
 27 37  1  0  0  0  0
 27 25  2  0  0  0  0
 28 27  1  0  0  0  0
 30  2  1  0  0  0  0
 32  4  1  0  0  0  0
 34  8  1  0  0  0  0
 36 24  1  0  0  0  0
 38 28  1  0  0  0  0
M  END
$$$$
scan_sander_basal/min_pdbs/min_pdb_C306_300.pdb
 OpenBabel09051719363D

 38 43  0  0  0  0  0  0  0  0999 V2000
   -0.3810    0.1890    0.8320 C   0  0  0  0  0  0  0  0  0  0  0  0
   -0.2530    0.6190   -0.4970 C   0  0  0  0  0  0  0  0  0  0  0  0
    0.2280    0.9180    1.8640 C   0  0  0  0  0  0  0  0  0  0  0  0
    0.4880    1.7740   -0.7930 C   0  0  0  0  0  0  0  0  0  0  0  0
    0.9700    2.0720    1.5650 C   0  0  0  0  0  0  0  0  0  0  0  0
    1.1300    2.5170    0.2290 C   0  0  0  0  0  0  0  0  0  0  0  0
    1.8820    3.7680   -0.1030 C   0  0  0  0  0  0  0  0  0  0  0  0
    1.3650    4.6870   -1.0500 C   0  0  0  0  0  0  0  0  0  0  0  0
    3.0960    4.1480    0.5200 C   0  0  0  0  0  0  0  0  0  0  0  0
    1.9630    5.8520   -1.3790 N   0  0  0  0  0  0  0  0  0  0  0  0
    3.7620    3.4080    1.4300 N   0  0  0  0  0  0  0  0  0  0  0  0
    3.7170    5.3420    0.1850 C   0  0  0  0  0  0  0  0  0  0  0  0
    3.1230    6.1880   -0.7720 C   0  0  0  0  0  0  0  0  0  0  0  0
    5.0980    4.2810    1.7950 S   0  0  0  0  0  0  0  0  0  0  0  0
    4.8860    5.5770    0.8200 N   0  0  0  0  0  0  0  0  0  0  0  0
    3.7250    7.4650   -1.1570 C   0  0  0  0  0  0  0  0  0  0  0  0
    3.9550    8.4590   -0.3090 N   0  0  0  0  0  0  0  0  0  0  0  0
    4.1850    7.7430   -2.8240 B   0  0  0  0  0  0  0  0  0  0  0  0
    4.5360    9.5280   -0.9530 C   0  0  0  0  0  0  0  0  0  0  0  0
    4.7260    9.3120   -2.2970 C   0  0  0  0  0  0  0  0  0  0  0  0
    5.3500   10.2880   -3.1480 C   0  0  0  0  0  0  0  0  0  0  0  0
    4.9150   10.6200   -4.8380 C   0  0  0  0  0  0  0  0  0  0  0  0
    6.3740   11.1190   -2.7690 C   0  0  0  0  0  0  0  0  0  0  0  0
    6.1530   11.8880   -4.9810 C   0  0  0  0  0  0  0  0  0  0  0  0
    7.2720   11.1940   -1.2790 S   0  0  0  0  0  0  0  0  0  0  0  0
    6.7970   11.9640   -3.7800 C   0  0  0  0  0  0  0  0  0  0  0  0
    8.2510   12.4840   -2.0450 C   0  0  0  0  0  0  0  0  0  0  0  0
    7.8860   12.7690   -3.3560 C   0  0  0  0  0  0  0  0  0  0  0  0
   -0.9550   -0.7050    1.0620 H   0  0  0  0  0  0  0  0  0  0  0  0
   -0.7290    0.0580   -1.2980 H   0  0  0  0  0  0  0  0  0  0  0  0
    0.1230    0.5920    2.8950 H   0  0  0  0  0  0  0  0  0  0  0  0
    0.5800    2.0920   -1.8270 H   0  0  0  0  0  0  0  0  0  0  0  0
    1.4180    2.6350    2.3780 H   0  0  0  0  0  0  0  0  0  0  0  0
    0.4230    4.4830   -1.5570 H   0  0  0  0  0  0  0  0  0  0  0  0
    4.7700   10.4200   -0.3870 H   0  0  0  0  0  0  0  0  0  0  0  0
    6.3120   12.4360   -5.8990 H   0  0  0  0  0  0  0  0  0  0  0  0
    9.0450   12.9390   -1.4680 H   0  0  0  0  0  0  0  0  0  0  0  0
    8.3720   13.5040   -3.9880 H   0  0  0  0  0  0  0  0  0  0  0  0
  1 29  1  0  0  0  0
  1  3  2  0  0  0  0
  2  1  1  0  0  0  0
  3 31  1  0  0  0  0
  4  2  2  0  0  0  0
  4  6  1  0  0  0  0
  5  3  1  0  0  0  0
  5 33  1  0  0  0  0
  6  5  2  0  0  0  0
  7  6  1  0  0  0  0
  7  9  1  0  0  0  0
  8  7  2  0  0  0  0
  9 11  2  0  0  0  0
 10  8  1  0  0  0  0
 10 13  2  0  0  0  0
 11 14  1  0  0  0  0
 12  9  1  0  0  0  0
 12 15  2  0  0  0  0
 13 12  1  0  0  0  0
 15 14  1  0  0  0  0
 16 13  1  0  0  0  0
 16 17  2  0  0  0  0
 18 20  2  0  0  0  0
 18 16  1  0  0  0  0
 19 35  1  0  0  0  0
 19 17  1  0  0  0  0
 20 19  1  0  0  0  0
 21 23  2  0  0  0  0
 21 20  1  0  0  0  0
 22 21  1  0  0  0  0
 23 25  1  0  0  0  0
 24 22  2  0  0  0  0
 24 26  1  0  0  0  0
 26 28  2  0  0  0  0
 26 23  1  0  0  0  0
 27 37  1  0  0  0  0
 27 25  2  0  0  0  0
 28 27  1  0  0  0  0
 30  2  1  0  0  0  0
 32  4  1  0  0  0  0
 34  8  1  0  0  0  0
 36 24  1  0  0  0  0
 38 28  1  0  0  0  0
M  END
$$$$
scan_sander_basal/min_pdbs/min_pdb_C306_315.pdb
 OpenBabel09051719363D

 38 43  0  0  0  0  0  0  0  0999 V2000
   -0.3940    0.1730    0.7310 C   0  0  0  0  0  0  0  0  0  0  0  0
   -0.1400    0.5630   -0.5920 C   0  0  0  0  0  0  0  0  0  0  0  0
    0.1010    0.9430    1.7940 C   0  0  0  0  0  0  0  0  0  0  0  0
    0.6140    1.7190   -0.8500 C   0  0  0  0  0  0  0  0  0  0  0  0
    0.8560    2.0980    1.5320 C   0  0  0  0  0  0  0  0  0  0  0  0
    1.1430    2.5020    0.2050 C   0  0  0  0  0  0  0  0  0  0  0  0
    1.9110    3.7530   -0.0920 C   0  0  0  0  0  0  0  0  0  0  0  0
    1.4800    4.6330   -1.1150 C   0  0  0  0  0  0  0  0  0  0  0  0
    3.0530    4.1700    0.6340 C   0  0  0  0  0  0  0  0  0  0  0  0
    2.0950    5.7950   -1.4210 N   0  0  0  0  0  0  0  0  0  0  0  0
    3.6320    3.4660    1.6280 N   0  0  0  0  0  0  0  0  0  0  0  0
    3.6920    5.3630    0.3240 C   0  0  0  0  0  0  0  0  0  0  0  0
    3.1870    6.1710   -0.7170 C   0  0  0  0  0  0  0  0  0  0  0  0
    4.9180    4.3640    2.0950 S   0  0  0  0  0  0  0  0  0  0  0  0
    4.7910    5.6270    1.0640 N   0  0  0  0  0  0  0  0  0  0  0  0
    3.7960    7.4520   -1.0900 C   0  0  0  0  0  0  0  0  0  0  0  0
    4.1820    8.3760   -0.2180 N   0  0  0  0  0  0  0  0  0  0  0  0
    4.0420    7.8420   -2.7820 B   0  0  0  0  0  0  0  0  0  0  0  0
    4.7200    9.4690   -0.8600 C   0  0  0  0  0  0  0  0  0  0  0  0
    4.7190    9.3470   -2.2290 C   0  0  0  0  0  0  0  0  0  0  0  0
    5.2690   10.3590   -3.0880 C   0  0  0  0  0  0  0  0  0  0  0  0
    4.6280   10.8320   -4.6760 C   0  0  0  0  0  0  0  0  0  0  0  0
    6.3710   11.1230   -2.7970 C   0  0  0  0  0  0  0  0  0  0  0  0
    5.8920   12.0610   -4.9000 C   0  0  0  0  0  0  0  0  0  0  0  0
    7.4620   11.0540   -1.4410 S   0  0  0  0  0  0  0  0  0  0  0  0
    6.6940   12.0240   -3.7960 C   0  0  0  0  0  0  0  0  0  0  0  0
    8.3880   12.3610   -2.2440 C   0  0  0  0  0  0  0  0  0  0  0  0
    7.8660   12.7550   -3.4710 C   0  0  0  0  0  0  0  0  0  0  0  0
   -0.9780   -0.7210    0.9330 H   0  0  0  0  0  0  0  0  0  0  0  0
   -0.5270   -0.0300   -1.4160 H   0  0  0  0  0  0  0  0  0  0  0  0
   -0.1020    0.6480    2.8200 H   0  0  0  0  0  0  0  0  0  0  0  0
    0.8050    2.0040   -1.8810 H   0  0  0  0  0  0  0  0  0  0  0  0
    1.2150    2.6920    2.3660 H   0  0  0  0  0  0  0  0  0  0  0  0
    0.5950    4.4000   -1.7060 H   0  0  0  0  0  0  0  0  0  0  0  0
    5.0680   10.3080   -0.2710 H   0  0  0  0  0  0  0  0  0  0  0  0
    5.9530   12.6690   -5.7920 H   0  0  0  0  0  0  0  0  0  0  0  0
    9.2730   12.7430   -1.7500 H   0  0  0  0  0  0  0  0  0  0  0  0
    8.2960   13.5160   -4.1110 H   0  0  0  0  0  0  0  0  0  0  0  0
  1 29  1  0  0  0  0
  1  3  2  0  0  0  0
  2  1  1  0  0  0  0
  3 31  1  0  0  0  0
  4  2  2  0  0  0  0
  4  6  1  0  0  0  0
  5  3  1  0  0  0  0
  5 33  1  0  0  0  0
  6  5  2  0  0  0  0
  7  6  1  0  0  0  0
  7  9  1  0  0  0  0
  8  7  2  0  0  0  0
  9 11  2  0  0  0  0
 10  8  1  0  0  0  0
 10 13  2  0  0  0  0
 11 14  1  0  0  0  0
 12  9  1  0  0  0  0
 12 15  2  0  0  0  0
 13 12  1  0  0  0  0
 15 14  1  0  0  0  0
 16 13  1  0  0  0  0
 16 17  2  0  0  0  0
 18 20  2  0  0  0  0
 18 16  1  0  0  0  0
 19 35  1  0  0  0  0
 19 17  1  0  0  0  0
 20 19  1  0  0  0  0
 21 23  2  0  0  0  0
 21 20  1  0  0  0  0
 22 21  1  0  0  0  0
 23 25  1  0  0  0  0
 24 22  2  0  0  0  0
 24 26  1  0  0  0  0
 26 28  2  0  0  0  0
 26 23  1  0  0  0  0
 27 37  1  0  0  0  0
 27 25  2  0  0  0  0
 28 27  1  0  0  0  0
 30  2  1  0  0  0  0
 32  4  1  0  0  0  0
 34  8  1  0  0  0  0
 36 24  1  0  0  0  0
 38 28  1  0  0  0  0
M  END
$$$$
scan_sander_basal/min_pdbs/min_pdb_C306_330.pdb
 OpenBabel09051719363D

 38 43  0  0  0  0  0  0  0  0999 V2000
   -0.4220    0.1660    0.6180 C   0  0  0  0  0  0  0  0  0  0  0  0
   -0.0480    0.5230   -0.6860 C   0  0  0  0  0  0  0  0  0  0  0  0
   -0.0310    0.9670    1.7010 C   0  0  0  0  0  0  0  0  0  0  0  0
    0.7210    1.6770   -0.9050 C   0  0  0  0  0  0  0  0  0  0  0  0
    0.7390    2.1210    1.4790 C   0  0  0  0  0  0  0  0  0  0  0  0
    1.1460    2.4920    0.1730 C   0  0  0  0  0  0  0  0  0  0  0  0
    1.9320    3.7400   -0.0850 C   0  0  0  0  0  0  0  0  0  0  0  0
    1.5940    4.5890   -1.1660 C   0  0  0  0  0  0  0  0  0  0  0  0
    3.0000    4.1860    0.7320 C   0  0  0  0  0  0  0  0  0  0  0  0
    2.2280    5.7470   -1.4440 N   0  0  0  0  0  0  0  0  0  0  0  0
    3.4850    3.5090    1.7930 N   0  0  0  0  0  0  0  0  0  0  0  0
    3.6600    5.3750    0.4500 C   0  0  0  0  0  0  0  0  0  0  0  0
    3.2510    6.1540   -0.6570 C   0  0  0  0  0  0  0  0  0  0  0  0
    4.7190    4.4240    2.3560 S   0  0  0  0  0  0  0  0  0  0  0  0
    4.6830    5.6590    1.2860 N   0  0  0  0  0  0  0  0  0  0  0  0
    3.8750    7.4370   -1.0180 C   0  0  0  0  0  0  0  0  0  0  0  0
    4.4290    8.2780   -0.1530 N   0  0  0  0  0  0  0  0  0  0  0  0
    3.9030    7.9540   -2.6970 B   0  0  0  0  0  0  0  0  0  0  0  0
    4.9300    9.3950   -0.7840 C   0  0  0  0  0  0  0  0  0  0  0  0
    4.7300    9.3800   -2.1430 C   0  0  0  0  0  0  0  0  0  0  0  0
    5.2060   10.4330   -2.9990 C   0  0  0  0  0  0  0  0  0  0  0  0
    4.3740   11.0550   -4.4400 C   0  0  0  0  0  0  0  0  0  0  0  0
    6.3780   11.1240   -2.8150 C   0  0  0  0  0  0  0  0  0  0  0  0
    5.6570   12.2430   -4.7550 C   0  0  0  0  0  0  0  0  0  0  0  0
    7.6420   10.9040   -1.6390 S   0  0  0  0  0  0  0  0  0  0  0  0
    6.6030   12.0870   -3.7830 C   0  0  0  0  0  0  0  0  0  0  0  0
    8.5150   12.2290   -2.4710 C   0  0  0  0  0  0  0  0  0  0  0  0
    7.8460   12.7400   -3.5790 C   0  0  0  0  0  0  0  0  0  0  0  0
   -1.0180   -0.7260    0.7880 H   0  0  0  0  0  0  0  0  0  0  0  0
   -0.3540   -0.0940   -1.5270 H   0  0  0  0  0  0  0  0  0  0  0  0
   -0.3280    0.6980    2.7110 H   0  0  0  0  0  0  0  0  0  0  0  0
    1.0060    1.9370   -1.9200 H   0  0  0  0  0  0  0  0  0  0  0  0
    1.0160    2.7390    2.3260 H   0  0  0  0  0  0  0  0  0  0  0  0
    0.7690    4.3340   -1.8300 H   0  0  0  0  0  0  0  0  0  0  0  0
    5.4000   10.1680   -0.1930 H   0  0  0  0  0  0  0  0  0  0  0  0
    5.6240   12.9160   -5.6000 H   0  0  0  0  0  0  0  0  0  0  0  0
    9.4790   12.5340   -2.0840 H   0  0  0  0  0  0  0  0  0  0  0  0
    8.2220   13.5300   -4.2180 H   0  0  0  0  0  0  0  0  0  0  0  0
  1 29  1  0  0  0  0
  1  3  2  0  0  0  0
  2  1  1  0  0  0  0
  3 31  1  0  0  0  0
  4  2  2  0  0  0  0
  4  6  1  0  0  0  0
  5  3  1  0  0  0  0
  5 33  1  0  0  0  0
  6  5  2  0  0  0  0
  7  6  1  0  0  0  0
  7  9  1  0  0  0  0
  8  7  2  0  0  0  0
  9 11  2  0  0  0  0
 10  8  1  0  0  0  0
 10 13  2  0  0  0  0
 11 14  1  0  0  0  0
 12  9  1  0  0  0  0
 12 15  2  0  0  0  0
 13 12  1  0  0  0  0
 15 14  1  0  0  0  0
 16 13  1  0  0  0  0
 16 17  2  0  0  0  0
 18 20  2  0  0  0  0
 18 16  1  0  0  0  0
 19 35  1  0  0  0  0
 19 17  1  0  0  0  0
 20 19  1  0  0  0  0
 21 23  2  0  0  0  0
 21 20  1  0  0  0  0
 22 21  1  0  0  0  0
 23 25  1  0  0  0  0
 24 22  2  0  0  0  0
 24 26  1  0  0  0  0
 26 28  2  0  0  0  0
 26 23  1  0  0  0  0
 27 37  1  0  0  0  0
 27 25  2  0  0  0  0
 28 27  1  0  0  0  0
 30  2  1  0  0  0  0
 32  4  1  0  0  0  0
 34  8  1  0  0  0  0
 36 24  1  0  0  0  0
 38 28  1  0  0  0  0
M  END
$$$$
scan_sander_basal/min_pdbs/min_pdb_C306_345.pdb
 OpenBabel09051719363D

 38 43  0  0  0  0  0  0  0  0999 V2000
   -0.4110    0.1460    0.5310 C   0  0  0  0  0  0  0  0  0  0  0  0
    0.0960    0.4560   -0.7390 C   0  0  0  0  0  0  0  0  0  0  0  0
   -0.1520    0.9980    1.6150 C   0  0  0  0  0  0  0  0  0  0  0  0
    0.8680    1.6160   -0.9230 C   0  0  0  0  0  0  0  0  0  0  0  0
    0.6210    2.1560    1.4280 C   0  0  0  0  0  0  0  0  0  0  0  0
    1.1610    2.4810    0.1600 C   0  0  0  0  0  0  0  0  0  0  0  0
    1.9530    3.7320   -0.0660 C   0  0  0  0  0  0  0  0  0  0  0  0
    1.7210    4.5300   -1.2120 C   0  0  0  0  0  0  0  0  0  0  0  0
    2.9190    4.2320    0.8400 C   0  0  0  0  0  0  0  0  0  0  0  0
    2.3650    5.6860   -1.4690 N   0  0  0  0  0  0  0  0  0  0  0  0
    3.2930    3.6080    1.9760 N   0  0  0  0  0  0  0  0  0  0  0  0
    3.5900    5.4220    0.5800 C   0  0  0  0  0  0  0  0  0  0  0  0
    3.2940    6.1500   -0.5990 C   0  0  0  0  0  0  0  0  0  0  0  0
    4.4440    4.5660    2.6330 S   0  0  0  0  0  0  0  0  0  0  0  0
    4.5060    5.7580    1.5160 N   0  0  0  0  0  0  0  0  0  0  0  0
    3.9340    7.4290   -0.9610 C   0  0  0  0  0  0  0  0  0  0  0  0
    4.6350    8.1930   -0.1310 N   0  0  0  0  0  0  0  0  0  0  0  0
    3.7840    8.0520   -2.5990 B   0  0  0  0  0  0  0  0  0  0  0  0
    5.1090    9.3250   -0.7550 C   0  0  0  0  0  0  0  0  0  0  0  0
    4.7420    9.4060   -2.0760 C   0  0  0  0  0  0  0  0  0  0  0  0
    5.1600   10.4890   -2.9230 C   0  0  0  0  0  0  0  0  0  0  0  0
    4.1870   11.2350   -4.2090 C   0  0  0  0  0  0  0  0  0  0  0  0
    6.3780   11.1180   -2.8510 C   0  0  0  0  0  0  0  0  0  0  0  0
    5.4780   12.3860   -4.6160 C   0  0  0  0  0  0  0  0  0  0  0  0
    7.7660   10.7710   -1.8600 S   0  0  0  0  0  0  0  0  0  0  0  0
    6.5290   12.1300   -3.7830 C   0  0  0  0  0  0  0  0  0  0  0  0
    8.5930   12.1090   -2.7180 C   0  0  0  0  0  0  0  0  0  0  0  0
    7.8180   12.7160   -3.7010 C   0  0  0  0  0  0  0  0  0  0  0  0
   -1.0090   -0.7500    0.6740 H   0  0  0  0  0  0  0  0  0  0  0  0
   -0.1080   -0.2000   -1.5810 H   0  0  0  0  0  0  0  0  0  0  0  0
   -0.5520    0.7640    2.5980 H   0  0  0  0  0  0  0  0  0  0  0  0
    1.2570    1.8390   -1.9110 H   0  0  0  0  0  0  0  0  0  0  0  0
    0.7960    2.8130    2.2740 H   0  0  0  0  0  0  0  0  0  0  0  0
    0.9760    4.2320   -1.9490 H   0  0  0  0  0  0  0  0  0  0  0  0
    5.6880   10.0390   -0.1840 H   0  0  0  0  0  0  0  0  0  0  0  0
    5.3730   13.1120   -5.4100 H   0  0  0  0  0  0  0  0  0  0  0  0
    9.6110   12.3480   -2.4400 H   0  0  0  0  0  0  0  0  0  0  0  0
    8.1490   13.5290   -4.3370 H   0  0  0  0  0  0  0  0  0  0  0  0
  1 29  1  0  0  0  0
  1  3  2  0  0  0  0
  2  1  1  0  0  0  0
  3 31  1  0  0  0  0
  4  2  2  0  0  0  0
  4  6  1  0  0  0  0
  5  3  1  0  0  0  0
  5 33  1  0  0  0  0
  6  5  2  0  0  0  0
  7  6  1  0  0  0  0
  7  9  1  0  0  0  0
  8  7  2  0  0  0  0
  9 11  2  0  0  0  0
 10  8  1  0  0  0  0
 10 13  2  0  0  0  0
 11 14  1  0  0  0  0
 12  9  1  0  0  0  0
 12 15  2  0  0  0  0
 13 12  1  0  0  0  0
 15 14  1  0  0  0  0
 16 13  1  0  0  0  0
 16 17  2  0  0  0  0
 18 20  2  0  0  0  0
 18 16  1  0  0  0  0
 19 35  1  0  0  0  0
 19 17  1  0  0  0  0
 20 19  1  0  0  0  0
 21 23  2  0  0  0  0
 21 20  1  0  0  0  0
 22 21  1  0  0  0  0
 23 25  1  0  0  0  0
 24 22  2  0  0  0  0
 24 26  1  0  0  0  0
 26 28  2  0  0  0  0
 26 23  1  0  0  0  0
 27 37  1  0  0  0  0
 27 25  2  0  0  0  0
 28 27  1  0  0  0  0
 30  2  1  0  0  0  0
 32  4  1  0  0  0  0
 34  8  1  0  0  0  0
 36 24  1  0  0  0  0
 38 28  1  0  0  0  0
M  END
$$$$
scan_sander_basal/min_pdbs/min_pdb_C306_360.pdb
 OpenBabel09051719363D

 38 43  0  0  0  0  0  0  0  0999 V2000
   -0.3800    0.1200    0.4590 C   0  0  0  0  0  0  0  0  0  0  0  0
    0.2490    0.3890   -0.7660 C   0  0  0  0  0  0  0  0  0  0  0  0
   -0.2480    1.0210    1.5260 C   0  0  0  0  0  0  0  0  0  0  0  0
    1.0140    1.5570   -0.9190 C   0  0  0  0  0  0  0  0  0  0  0  0
    0.5180    2.1880    1.3690 C   0  0  0  0  0  0  0  0  0  0  0  0
    1.1790    2.4740    0.1480 C   0  0  0  0  0  0  0  0  0  0  0  0
    1.9660    3.7320   -0.0500 C   0  0  0  0  0  0  0  0  0  0  0  0
    1.8380    4.4750   -1.2470 C   0  0  0  0  0  0  0  0  0  0  0  0
    2.8260    4.2920    0.9260 C   0  0  0  0  0  0  0  0  0  0  0  0
    2.4840    5.6340   -1.4880 N   0  0  0  0  0  0  0  0  0  0  0  0
    3.0880    3.7260    2.1220 N   0  0  0  0  0  0  0  0  0  0  0  0
    3.4990    5.4840    0.6830 C   0  0  0  0  0  0  0  0  0  0  0  0
    3.3130    6.1550   -0.5520 C   0  0  0  0  0  0  0  0  0  0  0  0
    4.1430    4.7390    2.8540 S   0  0  0  0  0  0  0  0  0  0  0  0
    4.2960    5.8850    1.6990 N   0  0  0  0  0  0  0  0  0  0  0  0
    3.9750    7.4250   -0.9150 C   0  0  0  0  0  0  0  0  0  0  0  0
    4.8210    8.0970   -0.1410 N   0  0  0  0  0  0  0  0  0  0  0  0
    3.6630    8.1620   -2.4820 B   0  0  0  0  0  0  0  0  0  0  0  0
    5.2790    9.2420   -0.7520 C   0  0  0  0  0  0  0  0  0  0  0  0
    4.7550    9.4290   -2.0070 C   0  0  0  0  0  0  0  0  0  0  0  0
    5.1260   10.5440   -2.8350 C   0  0  0  0  0  0  0  0  0  0  0  0
    4.0450   11.4210   -3.9390 C   0  0  0  0  0  0  0  0  0  0  0  0
    6.3780   11.1050   -2.8820 C   0  0  0  0  0  0  0  0  0  0  0  0
    5.3400   12.5310   -4.4390 C   0  0  0  0  0  0  0  0  0  0  0  0
    7.8570   10.6240   -2.1000 S   0  0  0  0  0  0  0  0  0  0  0  0
    6.4700   12.1670   -3.7640 C   0  0  0  0  0  0  0  0  0  0  0  0
    8.6460   11.9730   -2.9760 C   0  0  0  0  0  0  0  0  0  0  0  0
    7.7910   12.6820   -3.8130 C   0  0  0  0  0  0  0  0  0  0  0  0
   -0.9720   -0.7830    0.5790 H   0  0  0  0  0  0  0  0  0  0  0  0
    0.1450   -0.3060   -1.5940 H   0  0  0  0  0  0  0  0  0  0  0  0
   -0.7420    0.8190    2.4720 H   0  0  0  0  0  0  0  0  0  0  0  0
    1.4980    1.7490   -1.8720 H   0  0  0  0  0  0  0  0  0  0  0  0
    0.5930    2.8840    2.1980 H   0  0  0  0  0  0  0  0  0  0  0  0
    1.1770    4.1300   -2.0420 H   0  0  0  0  0  0  0  0  0  0  0  0
    5.9650    9.8860   -0.2180 H   0  0  0  0  0  0  0  0  0  0  0  0
    5.1790   13.3120   -5.1680 H   0  0  0  0  0  0  0  0  0  0  0  0
    9.7030   12.1420   -2.8170 H   0  0  0  0  0  0  0  0  0  0  0  0
    8.0870   13.5180   -4.4370 H   0  0  0  0  0  0  0  0  0  0  0  0
  1 29  1  0  0  0  0
  1  3  2  0  0  0  0
  2  1  1  0  0  0  0
  3 31  1  0  0  0  0
  4  2  2  0  0  0  0
  4  6  1  0  0  0  0
  5  3  1  0  0  0  0
  5 33  1  0  0  0  0
  6  5  2  0  0  0  0
  7  6  1  0  0  0  0
  7  9  1  0  0  0  0
  8  7  2  0  0  0  0
  9 11  2  0  0  0  0
 10  8  1  0  0  0  0
 10 13  2  0  0  0  0
 11 14  1  0  0  0  0
 12  9  1  0  0  0  0
 12 15  2  0  0  0  0
 13 12  1  0  0  0  0
 15 14  1  0  0  0  0
 16 13  1  0  0  0  0
 16 17  2  0  0  0  0
 18 20  2  0  0  0  0
 18 16  1  0  0  0  0
 19 35  1  0  0  0  0
 19 17  1  0  0  0  0
 20 19  1  0  0  0  0
 21 20  1  0  0  0  0
 22 21  1  0  0  0  0
 23 21  2  0  0  0  0
 23 25  1  0  0  0  0
 24 22  2  0  0  0  0
 24 26  1  0  0  0  0
 26 23  1  0  0  0  0
 27 37  1  0  0  0  0
 27 25  2  0  0  0  0
 28 26  2  0  0  0  0
 28 27  1  0  0  0  0
 30  2  1  0  0  0  0
 32  4  1  0  0  0  0
 34  8  1  0  0  0  0
 36 24  1  0  0  0  0
 38 28  1  0  0  0  0
M  END
$$$$
