scan_sander_basal_param/min_pdbs/min_pdb_C306_000.pdb
 OpenBabel10021702533D

 38 43  0  0  0  0  0  0  0  0999 V2000
   -0.3610    0.2370    0.9380 C   0  0  0  0  0  0  0  0  0  0  0  0
    0.9800    0.2630    1.3310 C   0  0  0  0  0  0  0  0  0  0  0  0
   -0.8950    1.3340    0.2560 C   0  0  0  0  0  0  0  0  0  0  0  0
    1.7790    1.3810    1.0430 C   0  0  0  0  0  0  0  0  0  0  0  0
   -0.0910    2.4500   -0.0300 C   0  0  0  0  0  0  0  0  0  0  0  0
    1.2810    2.5260    0.3510 C   0  0  0  0  0  0  0  0  0  0  0  0
    2.1880    3.7210    0.0630 C   0  0  0  0  0  0  0  0  0  0  0  0
    3.5490    3.7090    0.4850 C   0  0  0  0  0  0  0  0  0  0  0  0
    1.8170    4.9250   -0.6160 C   0  0  0  0  0  0  0  0  0  0  0  0
    4.4320    4.7080    0.2980 N   0  0  0  0  0  0  0  0  0  0  0  0
    0.5980    5.1910   -1.1280 N   0  0  0  0  0  0  0  0  0  0  0  0
    2.7300    5.9620   -0.8120 C   0  0  0  0  0  0  0  0  0  0  0  0
    4.0530    5.8400   -0.3310 C   0  0  0  0  0  0  0  0  0  0  0  0
    0.6840    6.6770   -1.8000 S   0  0  0  0  0  0  0  0  0  0  0  0
    2.2400    7.0340   -1.4750 N   0  0  0  0  0  0  0  0  0  0  0  0
    5.0990    6.8730   -0.4810 C   0  0  0  0  0  0  0  0  0  0  0  0
    4.9030    8.1000   -0.9510 N   0  0  0  0  0  0  0  0  0  0  0  0
    6.7590    6.5150   -0.0170 B   0  0  0  0  0  0  0  0  0  0  0  0
    6.0640    8.8410   -0.9550 C   0  0  0  0  0  0  0  0  0  0  0  0
    7.1490    8.1440   -0.4830 C   0  0  0  0  0  0  0  0  0  0  0  0
    8.4500    8.7420   -0.3590 C   0  0  0  0  0  0  0  0  0  0  0  0
   10.0000    7.9250   -0.6480 C   0  0  0  0  0  0  0  0  0  0  0  0
    8.6820   10.0480   -0.0080 C   0  0  0  0  0  0  0  0  0  0  0  0
   10.9260    9.3950   -0.2710 C   0  0  0  0  0  0  0  0  0  0  0  0
    7.5710   11.2960    0.4810 S   0  0  0  0  0  0  0  0  0  0  0  0
   10.0260   10.3710    0.0460 C   0  0  0  0  0  0  0  0  0  0  0  0
    9.0050   12.3430    0.7260 C   0  0  0  0  0  0  0  0  0  0  0  0
   10.2170   11.7130    0.4640 C   0  0  0  0  0  0  0  0  0  0  0  0
   -0.9820   -0.6270    1.1600 H   0  0  0  0  0  0  0  0  0  0  0  0
    1.4040   -0.5850    1.8620 H   0  0  0  0  0  0  0  0  0  0  0  0
   -1.9360    1.3240   -0.0540 H   0  0  0  0  0  0  0  0  0  0  0  0
    2.8040    1.3270    1.3800 H   0  0  0  0  0  0  0  0  0  0  0  0
   -0.5810    3.2530   -0.5570 H   0  0  0  0  0  0  0  0  0  0  0  0
    3.9800    2.8630    1.0070 H   0  0  0  0  0  0  0  0  0  0  0  0
    6.0400    9.8570   -1.3230 H   0  0  0  0  0  0  0  0  0  0  0  0
   12.0070    9.4160   -0.2920 H   0  0  0  0  0  0  0  0  0  0  0  0
    8.8480   13.3590    1.0630 H   0  0  0  0  0  0  0  0  0  0  0  0
   11.1910   12.1760    0.5740 H   0  0  0  0  0  0  0  0  0  0  0  0
  1 29  1  0  0  0  0
  1  2  2  0  0  0  0
  2 30  1  0  0  0  0
  3  1  1  0  0  0  0
  4  2  1  0  0  0  0
  4 32  1  0  0  0  0
  5  3  2  0  0  0  0
  5  6  1  0  0  0  0
  6  4  2  0  0  0  0
  7  6  1  0  0  0  0
  7  8  2  0  0  0  0
  8 34  1  0  0  0  0
  9  7  1  0  0  0  0
 10  8  1  0  0  0  0
 11  9  2  0  0  0  0
 12  9  1  0  0  0  0
 12 13  1  0  0  0  0
 13 10  2  0  0  0  0
 14 15  1  0  0  0  0
 14 11  1  0  0  0  0
 15 12  2  0  0  0  0
 16 13  1  0  0  0  0
 16 18  1  0  0  0  0
 17 16  2  0  0  0  0
 19 17  1  0  0  0  0
 19 20  1  0  0  0  0
 20 21  1  0  0  0  0
 20 18  2  0  0  0  0
 21 23  1  0  0  0  0
 22 21  2  0  0  0  0
 22 24  1  0  0  0  0
 23 26  1  0  0  0  0
 23 25  2  0  0  0  0
 24 26  2  0  0  0  0
 25 27  1  0  0  0  0
 26 28  1  0  0  0  0
 27 37  1  0  0  0  0
 28 38  1  0  0  0  0
 28 27  2  0  0  0  0
 31  3  1  0  0  0  0
 33  5  1  0  0  0  0
 35 19  1  0  0  0  0
 36 24  1  0  0  0  0
M  END
$$$$
scan_sander_basal_param/min_pdbs/min_pdb_C306_015.pdb
 OpenBabel10021702533D

 38 43  0  0  0  0  0  0  0  0999 V2000
   -0.3360    0.2140    0.8570 C   0  0  0  0  0  0  0  0  0  0  0  0
    0.8880    0.3730    1.5150 C   0  0  0  0  0  0  0  0  0  0  0  0
   -0.7590    1.1900   -0.0520 C   0  0  0  0  0  0  0  0  0  0  0  0
    1.6830    1.5030    1.2650 C   0  0  0  0  0  0  0  0  0  0  0  0
    0.0380    2.3200   -0.2990 C   0  0  0  0  0  0  0  0  0  0  0  0
    1.2880    2.5230    0.3530 C   0  0  0  0  0  0  0  0  0  0  0  0
    2.1800    3.7300    0.1100 C   0  0  0  0  0  0  0  0  0  0  0  0
    3.5370    3.7110    0.5310 C   0  0  0  0  0  0  0  0  0  0  0  0
    1.7920    4.9430   -0.5350 C   0  0  0  0  0  0  0  0  0  0  0  0
    4.4170    4.7140    0.3500 N   0  0  0  0  0  0  0  0  0  0  0  0
    0.5490    5.2250   -0.9800 N   0  0  0  0  0  0  0  0  0  0  0  0
    2.6970    5.9880   -0.7170 C   0  0  0  0  0  0  0  0  0  0  0  0
    4.0290    5.8550   -0.2580 C   0  0  0  0  0  0  0  0  0  0  0  0
    0.6180    6.7290   -1.6130 S   0  0  0  0  0  0  0  0  0  0  0  0
    2.1860    7.0770   -1.3340 N   0  0  0  0  0  0  0  0  0  0  0  0
    5.0720    6.8900   -0.4110 C   0  0  0  0  0  0  0  0  0  0  0  0
    4.8690    8.1240   -0.8610 N   0  0  0  0  0  0  0  0  0  0  0  0
    6.7400    6.5250    0.0200 B   0  0  0  0  0  0  0  0  0  0  0  0
    6.0330    8.8590   -0.8900 C   0  0  0  0  0  0  0  0  0  0  0  0
    7.1270    8.1520   -0.4560 C   0  0  0  0  0  0  0  0  0  0  0  0
    8.4360    8.7400   -0.3730 C   0  0  0  0  0  0  0  0  0  0  0  0
    9.9690    7.9090   -0.7150 C   0  0  0  0  0  0  0  0  0  0  0  0
    8.6920   10.0430   -0.0280 C   0  0  0  0  0  0  0  0  0  0  0  0
   10.9200    9.3710   -0.3720 C   0  0  0  0  0  0  0  0  0  0  0  0
    7.6100   11.3020    0.4960 S   0  0  0  0  0  0  0  0  0  0  0  0
   10.0400   10.3550   -0.0230 C   0  0  0  0  0  0  0  0  0  0  0  0
    9.0600   12.3370    0.6870 C   0  0  0  0  0  0  0  0  0  0  0  0
   10.2560   11.6960    0.3850 C   0  0  0  0  0  0  0  0  0  0  0  0
   -0.9520   -0.6600    1.0480 H   0  0  0  0  0  0  0  0  0  0  0  0
    1.2210   -0.3780    2.2270 H   0  0  0  0  0  0  0  0  0  0  0  0
   -1.7030    1.0680   -0.5760 H   0  0  0  0  0  0  0  0  0  0  0  0
    2.6040    1.5860    1.8260 H   0  0  0  0  0  0  0  0  0  0  0  0
   -0.3270    3.0140   -1.0420 H   0  0  0  0  0  0  0  0  0  0  0  0
    3.9710    2.8330    1.0020 H   0  0  0  0  0  0  0  0  0  0  0  0
    6.0040    9.8780   -1.2520 H   0  0  0  0  0  0  0  0  0  0  0  0
   11.9990    9.3830   -0.4320 H   0  0  0  0  0  0  0  0  0  0  0  0
    8.9240   13.3560    1.0250 H   0  0  0  0  0  0  0  0  0  0  0  0
   11.2380   12.1510    0.4570 H   0  0  0  0  0  0  0  0  0  0  0  0
  1 29  1  0  0  0  0
  1  2  2  0  0  0  0
  2 30  1  0  0  0  0
  3  1  1  0  0  0  0
  4  2  1  0  0  0  0
  4 32  1  0  0  0  0
  5  3  2  0  0  0  0
  5  6  1  0  0  0  0
  6  4  2  0  0  0  0
  7  6  1  0  0  0  0
  7  8  2  0  0  0  0
  8 34  1  0  0  0  0
  9  7  1  0  0  0  0
 10  8  1  0  0  0  0
 11  9  2  0  0  0  0
 12  9  1  0  0  0  0
 12 13  1  0  0  0  0
 13 10  2  0  0  0  0
 14 15  1  0  0  0  0
 14 11  1  0  0  0  0
 15 12  2  0  0  0  0
 16 13  1  0  0  0  0
 16 18  1  0  0  0  0
 17 16  2  0  0  0  0
 19 17  1  0  0  0  0
 19 20  1  0  0  0  0
 20 21  1  0  0  0  0
 20 18  2  0  0  0  0
 21 23  1  0  0  0  0
 22 21  2  0  0  0  0
 22 24  1  0  0  0  0
 23 26  1  0  0  0  0
 23 25  2  0  0  0  0
 24 26  2  0  0  0  0
 25 27  1  0  0  0  0
 26 28  1  0  0  0  0
 27 37  1  0  0  0  0
 28 38  1  0  0  0  0
 28 27  2  0  0  0  0
 31  3  1  0  0  0  0
 33  5  1  0  0  0  0
 35 19  1  0  0  0  0
 36 24  1  0  0  0  0
M  END
$$$$
scan_sander_basal_param/min_pdbs/min_pdb_C306_030.pdb
 OpenBabel10021702533D

 38 43  0  0  0  0  0  0  0  0999 V2000
   -0.3200    0.2310    0.8050 C   0  0  0  0  0  0  0  0  0  0  0  0
    0.7680    0.4990    1.6470 C   0  0  0  0  0  0  0  0  0  0  0  0
   -0.5990    1.0900   -0.2660 C   0  0  0  0  0  0  0  0  0  0  0  0
    1.5720    1.6280    1.4180 C   0  0  0  0  0  0  0  0  0  0  0  0
    0.2060    2.2190   -0.4910 C   0  0  0  0  0  0  0  0  0  0  0  0
    1.3110    2.5220    0.3470 C   0  0  0  0  0  0  0  0  0  0  0  0
    2.1970    3.7200    0.1270 C   0  0  0  0  0  0  0  0  0  0  0  0
    3.5650    3.6700    0.4930 C   0  0  0  0  0  0  0  0  0  0  0  0
    1.7770    4.9470   -0.4530 C   0  0  0  0  0  0  0  0  0  0  0  0
    4.4380    4.6810    0.3160 N   0  0  0  0  0  0  0  0  0  0  0  0
    0.5130    5.2240   -0.8340 N   0  0  0  0  0  0  0  0  0  0  0  0
    2.6730    5.9980   -0.6310 C   0  0  0  0  0  0  0  0  0  0  0  0
    4.0230    5.8460   -0.2320 C   0  0  0  0  0  0  0  0  0  0  0  0
    0.5510    6.7530   -1.4100 S   0  0  0  0  0  0  0  0  0  0  0  0
    2.1290    7.1060   -1.1840 N   0  0  0  0  0  0  0  0  0  0  0  0
    5.0590    6.8880   -0.3880 C   0  0  0  0  0  0  0  0  0  0  0  0
    4.8350    8.1380   -0.7820 N   0  0  0  0  0  0  0  0  0  0  0  0
    6.7430    6.5110   -0.0420 B   0  0  0  0  0  0  0  0  0  0  0  0
    5.9960    8.8760   -0.8310 C   0  0  0  0  0  0  0  0  0  0  0  0
    7.1080    8.1560   -0.4710 C   0  0  0  0  0  0  0  0  0  0  0  0
    8.4190    8.7430   -0.4210 C   0  0  0  0  0  0  0  0  0  0  0  0
    9.9370    7.9300   -0.8590 C   0  0  0  0  0  0  0  0  0  0  0  0
    8.6880   10.0340   -0.0370 C   0  0  0  0  0  0  0  0  0  0  0  0
   10.9000    9.3810   -0.5010 C   0  0  0  0  0  0  0  0  0  0  0  0
    7.6270   11.2690    0.5800 S   0  0  0  0  0  0  0  0  0  0  0  0
   10.0350   10.3480   -0.0780 C   0  0  0  0  0  0  0  0  0  0  0  0
    9.0840   12.2990    0.7490 C   0  0  0  0  0  0  0  0  0  0  0  0
   10.2670   11.6740    0.3720 C   0  0  0  0  0  0  0  0  0  0  0  0
   -0.9430   -0.6420    0.9800 H   0  0  0  0  0  0  0  0  0  0  0  0
    0.9850   -0.1630    2.4800 H   0  0  0  0  0  0  0  0  0  0  0  0
   -1.4360    0.8810   -0.9270 H   0  0  0  0  0  0  0  0  0  0  0  0
    2.3940    1.8200    2.0990 H   0  0  0  0  0  0  0  0  0  0  0  0
   -0.0190    2.8440   -1.3470 H   0  0  0  0  0  0  0  0  0  0  0  0
    3.9910    2.7640    0.9210 H   0  0  0  0  0  0  0  0  0  0  0  0
    5.9510    9.9080   -1.1520 H   0  0  0  0  0  0  0  0  0  0  0  0
   11.9750    9.3980   -0.6070 H   0  0  0  0  0  0  0  0  0  0  0  0
    8.9610   13.3040    1.1310 H   0  0  0  0  0  0  0  0  0  0  0  0
   11.2500   12.1280    0.4200 H   0  0  0  0  0  0  0  0  0  0  0  0
  1 29  1  0  0  0  0
  1  2  2  0  0  0  0
  2 30  1  0  0  0  0
  3  1  1  0  0  0  0
  4  2  1  0  0  0  0
  4 32  1  0  0  0  0
  5  3  2  0  0  0  0
  5  6  1  0  0  0  0
  6  4  2  0  0  0  0
  7  6  1  0  0  0  0
  7  8  2  0  0  0  0
  8 34  1  0  0  0  0
  9  7  1  0  0  0  0
 10  8  1  0  0  0  0
 11  9  2  0  0  0  0
 12  9  1  0  0  0  0
 12 13  1  0  0  0  0
 13 10  2  0  0  0  0
 14 15  1  0  0  0  0
 14 11  1  0  0  0  0
 15 12  2  0  0  0  0
 16 13  1  0  0  0  0
 16 18  1  0  0  0  0
 17 16  2  0  0  0  0
 19 17  1  0  0  0  0
 19 20  1  0  0  0  0
 20 21  1  0  0  0  0
 20 18  2  0  0  0  0
 21 23  2  0  0  0  0
 22 24  2  0  0  0  0
 22 21  1  0  0  0  0
 23 25  1  0  0  0  0
 24 26  1  0  0  0  0
 25 27  2  0  0  0  0
 26 23  1  0  0  0  0
 26 28  2  0  0  0  0
 27 37  1  0  0  0  0
 28 38  1  0  0  0  0
 28 27  1  0  0  0  0
 31  3  1  0  0  0  0
 33  5  1  0  0  0  0
 35 19  1  0  0  0  0
 36 24  1  0  0  0  0
M  END
$$$$
scan_sander_basal_param/min_pdbs/min_pdb_C306_045.pdb
 OpenBabel10021702533D

 38 43  0  0  0  0  0  0  0  0999 V2000
   -0.3160    0.2460    0.7600 C   0  0  0  0  0  0  0  0  0  0  0  0
    0.6070    0.6320    1.7440 C   0  0  0  0  0  0  0  0  0  0  0  0
   -0.4180    0.9800   -0.4310 C   0  0  0  0  0  0  0  0  0  0  0  0
    1.4260    1.7540    1.5350 C   0  0  0  0  0  0  0  0  0  0  0  0
    0.4020    2.1020   -0.6360 C   0  0  0  0  0  0  0  0  0  0  0  0
    1.3380    2.5130    0.3440 C   0  0  0  0  0  0  0  0  0  0  0  0
    2.2250    3.6990    0.1360 C   0  0  0  0  0  0  0  0  0  0  0  0
    3.6040    3.6260    0.4410 C   0  0  0  0  0  0  0  0  0  0  0  0
    1.7770    4.9390   -0.3770 C   0  0  0  0  0  0  0  0  0  0  0  0
    4.4680    4.6470    0.2690 N   0  0  0  0  0  0  0  0  0  0  0  0
    0.4970    5.2040   -0.7120 N   0  0  0  0  0  0  0  0  0  0  0  0
    2.6600    5.9980   -0.5530 C   0  0  0  0  0  0  0  0  0  0  0  0
    4.0270    5.8330   -0.2150 C   0  0  0  0  0  0  0  0  0  0  0  0
    0.5040    6.7540   -1.2330 S   0  0  0  0  0  0  0  0  0  0  0  0
    2.0870    7.1180   -1.0490 N   0  0  0  0  0  0  0  0  0  0  0  0
    5.0520    6.8850   -0.3720 C   0  0  0  0  0  0  0  0  0  0  0  0
    4.8070    8.1480   -0.7060 N   0  0  0  0  0  0  0  0  0  0  0  0
    6.7500    6.5040   -0.1110 B   0  0  0  0  0  0  0  0  0  0  0  0
    5.9620    8.8940   -0.7730 C   0  0  0  0  0  0  0  0  0  0  0  0
    7.0910    8.1660   -0.4880 C   0  0  0  0  0  0  0  0  0  0  0  0
    8.4010    8.7580   -0.4680 C   0  0  0  0  0  0  0  0  0  0  0  0
    9.9020    7.9710   -1.0000 C   0  0  0  0  0  0  0  0  0  0  0  0
    8.6800   10.0330   -0.0440 C   0  0  0  0  0  0  0  0  0  0  0  0
   10.8740    9.4110   -0.6230 C   0  0  0  0  0  0  0  0  0  0  0  0
    7.6410   11.2370    0.6650 S   0  0  0  0  0  0  0  0  0  0  0  0
   10.0230   10.3570   -0.1260 C   0  0  0  0  0  0  0  0  0  0  0  0
    9.0990   12.2670    0.8160 C   0  0  0  0  0  0  0  0  0  0  0  0
   10.2680   11.6640    0.3670 C   0  0  0  0  0  0  0  0  0  0  0  0
   -0.9500   -0.6220    0.9200 H   0  0  0  0  0  0  0  0  0  0  0  0
    0.6860    0.0650    2.6670 H   0  0  0  0  0  0  0  0  0  0  0  0
   -1.1300    0.6810   -1.1950 H   0  0  0  0  0  0  0  0  0  0  0  0
    2.1300    2.0470    2.3090 H   0  0  0  0  0  0  0  0  0  0  0  0
    0.3190    2.6560   -1.5660 H   0  0  0  0  0  0  0  0  0  0  0  0
    4.0330    2.7030    0.8280 H   0  0  0  0  0  0  0  0  0  0  0  0
    5.9000    9.9380   -1.0500 H   0  0  0  0  0  0  0  0  0  0  0  0
   11.9440    9.4390   -0.7710 H   0  0  0  0  0  0  0  0  0  0  0  0
    8.9890   13.2560    1.2430 H   0  0  0  0  0  0  0  0  0  0  0  0
   11.2510   12.1220    0.3930 H   0  0  0  0  0  0  0  0  0  0  0  0
  1 29  1  0  0  0  0
  1  2  2  0  0  0  0
  2 30  1  0  0  0  0
  3  1  1  0  0  0  0
  4  2  1  0  0  0  0
  4 32  1  0  0  0  0
  5  3  2  0  0  0  0
  5  6  1  0  0  0  0
  6  4  2  0  0  0  0
  7  6  1  0  0  0  0
  7  8  2  0  0  0  0
  8 34  1  0  0  0  0
  9  7  1  0  0  0  0
 10  8  1  0  0  0  0
 11  9  2  0  0  0  0
 12  9  1  0  0  0  0
 12 13  1  0  0  0  0
 13 10  2  0  0  0  0
 14 15  1  0  0  0  0
 14 11  1  0  0  0  0
 15 12  2  0  0  0  0
 16 13  1  0  0  0  0
 16 18  1  0  0  0  0
 17 16  2  0  0  0  0
 19 17  1  0  0  0  0
 19 20  1  0  0  0  0
 20 21  1  0  0  0  0
 20 18  2  0  0  0  0
 21 23  2  0  0  0  0
 22 24  2  0  0  0  0
 22 21  1  0  0  0  0
 23 25  1  0  0  0  0
 24 26  1  0  0  0  0
 25 27  2  0  0  0  0
 26 23  1  0  0  0  0
 26 28  2  0  0  0  0
 27 37  1  0  0  0  0
 28 38  1  0  0  0  0
 28 27  1  0  0  0  0
 31  3  1  0  0  0  0
 33  5  1  0  0  0  0
 35 19  1  0  0  0  0
 36 24  1  0  0  0  0
M  END
$$$$
scan_sander_basal_param/min_pdbs/min_pdb_C306_060.pdb
 OpenBabel10021702533D

 38 43  0  0  0  0  0  0  0  0999 V2000
   -0.3070    0.2460    0.7250 C   0  0  0  0  0  0  0  0  0  0  0  0
    0.4300    0.7650    1.8010 C   0  0  0  0  0  0  0  0  0  0  0  0
   -0.2180    0.8450   -0.5410 C   0  0  0  0  0  0  0  0  0  0  0  0
    1.2580    1.8830    1.6090 C   0  0  0  0  0  0  0  0  0  0  0  0
    0.6110    1.9630   -0.7310 C   0  0  0  0  0  0  0  0  0  0  0  0
    1.3610    2.5010    0.3410 C   0  0  0  0  0  0  0  0  0  0  0  0
    2.2490    3.6810    0.1420 C   0  0  0  0  0  0  0  0  0  0  0  0
    3.6380    3.5930    0.3820 C   0  0  0  0  0  0  0  0  0  0  0  0
    1.7760    4.9350   -0.3000 C   0  0  0  0  0  0  0  0  0  0  0  0
    4.4920    4.6230    0.2160 N   0  0  0  0  0  0  0  0  0  0  0  0
    0.4830    5.1960   -0.5800 N   0  0  0  0  0  0  0  0  0  0  0  0
    2.6480    6.0030   -0.4730 C   0  0  0  0  0  0  0  0  0  0  0  0
    4.0280    5.8280   -0.2000 C   0  0  0  0  0  0  0  0  0  0  0  0
    0.4620    6.7650   -1.0420 S   0  0  0  0  0  0  0  0  0  0  0  0
    2.0490    7.1350   -0.9040 N   0  0  0  0  0  0  0  0  0  0  0  0
    5.0430    6.8890   -0.3580 C   0  0  0  0  0  0  0  0  0  0  0  0
    4.7810    8.1630   -0.6290 N   0  0  0  0  0  0  0  0  0  0  0  0
    6.7520    6.5040   -0.1860 B   0  0  0  0  0  0  0  0  0  0  0  0
    5.9310    8.9160   -0.7140 C   0  0  0  0  0  0  0  0  0  0  0  0
    7.0720    8.1820   -0.5070 C   0  0  0  0  0  0  0  0  0  0  0  0
    8.3800    8.7780   -0.5190 C   0  0  0  0  0  0  0  0  0  0  0  0
    9.8600    8.0210   -1.1460 C   0  0  0  0  0  0  0  0  0  0  0  0
    8.6740   10.0360   -0.0540 C   0  0  0  0  0  0  0  0  0  0  0  0
   10.8430    9.4480   -0.7510 C   0  0  0  0  0  0  0  0  0  0  0  0
    7.6630   11.2050    0.7470 S   0  0  0  0  0  0  0  0  0  0  0  0
   10.0110   10.3680   -0.1800 C   0  0  0  0  0  0  0  0  0  0  0  0
    9.1230   12.2340    0.8790 C   0  0  0  0  0  0  0  0  0  0  0  0
   10.2740   11.6550    0.3560 C   0  0  0  0  0  0  0  0  0  0  0  0
   -0.9490   -0.6180    0.8730 H   0  0  0  0  0  0  0  0  0  0  0  0
    0.3600    0.3020    2.7820 H   0  0  0  0  0  0  0  0  0  0  0  0
   -0.7900    0.4450   -1.3740 H   0  0  0  0  0  0  0  0  0  0  0  0
    1.8230    2.2810    2.4460 H   0  0  0  0  0  0  0  0  0  0  0  0
    0.6740    2.4240   -1.7120 H   0  0  0  0  0  0  0  0  0  0  0  0
    4.0790    2.6550    0.7180 H   0  0  0  0  0  0  0  0  0  0  0  0
    5.8540    9.9700   -0.9450 H   0  0  0  0  0  0  0  0  0  0  0  0
   11.9060    9.4860   -0.9430 H   0  0  0  0  0  0  0  0  0  0  0  0
    9.0290   13.2040    1.3510 H   0  0  0  0  0  0  0  0  0  0  0  0
   11.2560   12.1160    0.3600 H   0  0  0  0  0  0  0  0  0  0  0  0
  1 29  1  0  0  0  0
  1  2  2  0  0  0  0
  2 30  1  0  0  0  0
  3  1  1  0  0  0  0
  4  2  1  0  0  0  0
  4 32  1  0  0  0  0
  5  3  2  0  0  0  0
  5  6  1  0  0  0  0
  6  4  2  0  0  0  0
  7  6  1  0  0  0  0
  7  8  2  0  0  0  0
  8 34  1  0  0  0  0
  9  7  1  0  0  0  0
 10  8  1  0  0  0  0
 11  9  2  0  0  0  0
 12  9  1  0  0  0  0
 12 13  1  0  0  0  0
 13 10  2  0  0  0  0
 14 15  1  0  0  0  0
 14 11  1  0  0  0  0
 15 12  2  0  0  0  0
 16 13  1  0  0  0  0
 16 18  1  0  0  0  0
 17 16  2  0  0  0  0
 19 17  1  0  0  0  0
 19 20  1  0  0  0  0
 20 18  2  0  0  0  0
 21 20  1  0  0  0  0
 21 23  2  0  0  0  0
 22 24  2  0  0  0  0
 22 21  1  0  0  0  0
 23 25  1  0  0  0  0
 24 26  1  0  0  0  0
 25 27  2  0  0  0  0
 26 23  1  0  0  0  0
 26 28  2  0  0  0  0
 27 37  1  0  0  0  0
 28 38  1  0  0  0  0
 28 27  1  0  0  0  0
 31  3  1  0  0  0  0
 33  5  1  0  0  0  0
 35 19  1  0  0  0  0
 36 24  1  0  0  0  0
M  END
$$$$
scan_sander_basal_param/min_pdbs/min_pdb_C306_075.pdb
 OpenBabel10021702533D

 38 43  0  0  0  0  0  0  0  0999 V2000
   -0.2870    0.2290    0.6890 C   0  0  0  0  0  0  0  0  0  0  0  0
    0.2510    0.8880    1.8060 C   0  0  0  0  0  0  0  0  0  0  0  0
    0.0010    0.6900   -0.6050 C   0  0  0  0  0  0  0  0  0  0  0  0
    1.0790    2.0080    1.6270 C   0  0  0  0  0  0  0  0  0  0  0  0
    0.8290    1.8110   -0.7810 C   0  0  0  0  0  0  0  0  0  0  0  0
    1.3790    2.4870    0.3320 C   0  0  0  0  0  0  0  0  0  0  0  0
    2.2630    3.6690    0.1450 C   0  0  0  0  0  0  0  0  0  0  0  0
    3.6600    3.5720    0.3200 C   0  0  0  0  0  0  0  0  0  0  0  0
    1.7690    4.9390   -0.2210 C   0  0  0  0  0  0  0  0  0  0  0  0
    4.5060    4.6100    0.1610 N   0  0  0  0  0  0  0  0  0  0  0  0
    0.4660    5.2040   -0.4360 N   0  0  0  0  0  0  0  0  0  0  0  0
    2.6320    6.0140   -0.3870 C   0  0  0  0  0  0  0  0  0  0  0  0
    4.0230    5.8310   -0.1830 C   0  0  0  0  0  0  0  0  0  0  0  0
    0.4230    6.7900   -0.8320 S   0  0  0  0  0  0  0  0  0  0  0  0
    2.0130    7.1620   -0.7450 N   0  0  0  0  0  0  0  0  0  0  0  0
    5.0300    6.9000   -0.3400 C   0  0  0  0  0  0  0  0  0  0  0  0
    4.7560    8.1840   -0.5440 N   0  0  0  0  0  0  0  0  0  0  0  0
    6.7450    6.5120   -0.2590 B   0  0  0  0  0  0  0  0  0  0  0  0
    5.9000    8.9430   -0.6490 C   0  0  0  0  0  0  0  0  0  0  0  0
    7.0500    8.2030   -0.5240 C   0  0  0  0  0  0  0  0  0  0  0  0
    8.3560    8.8020   -0.5690 C   0  0  0  0  0  0  0  0  0  0  0  0
    9.8060    8.0750   -1.2920 C   0  0  0  0  0  0  0  0  0  0  0  0
    8.6690   10.0400   -0.0650 C   0  0  0  0  0  0  0  0  0  0  0  0
   10.8050    9.4870   -0.8820 C   0  0  0  0  0  0  0  0  0  0  0  0
    7.6940   11.1720    0.8290 S   0  0  0  0  0  0  0  0  0  0  0  0
    9.9990   10.3810   -0.2360 C   0  0  0  0  0  0  0  0  0  0  0  0
    9.1590   12.1990    0.9390 C   0  0  0  0  0  0  0  0  0  0  0  0
   10.2850   11.6450    0.3410 C   0  0  0  0  0  0  0  0  0  0  0  0
   -0.9280   -0.6370    0.8270 H   0  0  0  0  0  0  0  0  0  0  0  0
    0.0260    0.5320    2.8080 H   0  0  0  0  0  0  0  0  0  0  0  0
   -0.4170    0.1820   -1.4690 H   0  0  0  0  0  0  0  0  0  0  0  0
    1.4900    2.5170    2.4950 H   0  0  0  0  0  0  0  0  0  0  0  0
    1.0460    2.1680   -1.7830 H   0  0  0  0  0  0  0  0  0  0  0  0
    4.1140    2.6210    0.5990 H   0  0  0  0  0  0  0  0  0  0  0  0
    5.8120   10.0050   -0.8320 H   0  0  0  0  0  0  0  0  0  0  0  0
   11.8580    9.5360   -1.1200 H   0  0  0  0  0  0  0  0  0  0  0  0
    9.0850   13.1470    1.4550 H   0  0  0  0  0  0  0  0  0  0  0  0
   11.2660   12.1070    0.3200 H   0  0  0  0  0  0  0  0  0  0  0  0
  1 29  1  0  0  0  0
  1  2  2  0  0  0  0
  2 30  1  0  0  0  0
  3  1  1  0  0  0  0
  4  2  1  0  0  0  0
  4 32  1  0  0  0  0
  5  3  2  0  0  0  0
  5  6  1  0  0  0  0
  6  4  2  0  0  0  0
  7  8  2  0  0  0  0
  7  6  1  0  0  0  0
  8 34  1  0  0  0  0
  9  7  1  0  0  0  0
 10  8  1  0  0  0  0
 11  9  2  0  0  0  0
 12  9  1  0  0  0  0
 12 13  1  0  0  0  0
 13 10  2  0  0  0  0
 14 15  1  0  0  0  0
 14 11  1  0  0  0  0
 15 12  2  0  0  0  0
 16 18  1  0  0  0  0
 16 13  1  0  0  0  0
 17 16  2  0  0  0  0
 19 17  1  0  0  0  0
 19 20  1  0  0  0  0
 20 18  2  0  0  0  0
 21 20  1  0  0  0  0
 21 23  2  0  0  0  0
 22 24  2  0  0  0  0
 22 21  1  0  0  0  0
 23 25  1  0  0  0  0
 24 26  1  0  0  0  0
 25 27  2  0  0  0  0
 26 23  1  0  0  0  0
 26 28  2  0  0  0  0
 27 37  1  0  0  0  0
 28 27  1  0  0  0  0
 31  3  1  0  0  0  0
 33  5  1  0  0  0  0
 35 19  1  0  0  0  0
 36 24  1  0  0  0  0
 38 28  1  0  0  0  0
M  END
$$$$
scan_sander_basal_param/min_pdbs/min_pdb_C306_090.pdb
 OpenBabel10021702533D

 38 43  0  0  0  0  0  0  0  0999 V2000
   -0.2640    0.2080    0.6620 C   0  0  0  0  0  0  0  0  0  0  0  0
    0.0590    1.0110    1.7670 C   0  0  0  0  0  0  0  0  0  0  0  0
    0.2350    0.5300   -0.6110 C   0  0  0  0  0  0  0  0  0  0  0  0
    0.8810    2.1370    1.5980 C   0  0  0  0  0  0  0  0  0  0  0  0
    1.0570    1.6560   -0.7760 C   0  0  0  0  0  0  0  0  0  0  0  0
    1.3920    2.4760    0.3250 C   0  0  0  0  0  0  0  0  0  0  0  0
    2.2690    3.6630    0.1490 C   0  0  0  0  0  0  0  0  0  0  0  0
    3.6720    3.5610    0.2690 C   0  0  0  0  0  0  0  0  0  0  0  0
    1.7630    4.9440   -0.1530 C   0  0  0  0  0  0  0  0  0  0  0  0
    4.5110    4.6050    0.1150 N   0  0  0  0  0  0  0  0  0  0  0  0
    0.4520    5.2140   -0.3100 N   0  0  0  0  0  0  0  0  0  0  0  0
    2.6190    6.0260   -0.3120 C   0  0  0  0  0  0  0  0  0  0  0  0
    4.0170    5.8370   -0.1670 C   0  0  0  0  0  0  0  0  0  0  0  0
    0.3940    6.8130   -0.6490 S   0  0  0  0  0  0  0  0  0  0  0  0
    1.9870    7.1840   -0.6070 N   0  0  0  0  0  0  0  0  0  0  0  0
    5.0170    6.9120   -0.3240 C   0  0  0  0  0  0  0  0  0  0  0  0
    4.7350    8.2020   -0.4720 N   0  0  0  0  0  0  0  0  0  0  0  0
    6.7330    6.5230   -0.3210 B   0  0  0  0  0  0  0  0  0  0  0  0
    5.8750    8.9650   -0.5930 C   0  0  0  0  0  0  0  0  0  0  0  0
    7.0290    8.2230   -0.5380 C   0  0  0  0  0  0  0  0  0  0  0  0
    8.3320    8.8250   -0.6110 C   0  0  0  0  0  0  0  0  0  0  0  0
    9.7540    8.1250   -1.4140 C   0  0  0  0  0  0  0  0  0  0  0  0
    8.6650   10.0440   -0.0770 C   0  0  0  0  0  0  0  0  0  0  0  0
   10.7680    9.5220   -0.9940 C   0  0  0  0  0  0  0  0  0  0  0  0
    7.7250   11.1430    0.8920 S   0  0  0  0  0  0  0  0  0  0  0  0
    9.9880   10.3920   -0.2870 C   0  0  0  0  0  0  0  0  0  0  0  0
    9.1930   12.1670    0.9820 C   0  0  0  0  0  0  0  0  0  0  0  0
   10.2960   11.6360    0.3220 C   0  0  0  0  0  0  0  0  0  0  0  0
   -0.9020   -0.6620    0.7910 H   0  0  0  0  0  0  0  0  0  0  0  0
   -0.3290    0.7640    2.7510 H   0  0  0  0  0  0  0  0  0  0  0  0
   -0.0170   -0.0910   -1.4660 H   0  0  0  0  0  0  0  0  0  0  0  0
    1.1260    2.7580    2.4550 H   0  0  0  0  0  0  0  0  0  0  0  0
    1.4390    1.9030   -1.7630 H   0  0  0  0  0  0  0  0  0  0  0  0
    4.1350    2.6010    0.4970 H   0  0  0  0  0  0  0  0  0  0  0  0
    5.7810   10.0330   -0.7350 H   0  0  0  0  0  0  0  0  0  0  0  0
   11.8110    9.5810   -1.2690 H   0  0  0  0  0  0  0  0  0  0  0  0
    9.1390   13.0970    1.5330 H   0  0  0  0  0  0  0  0  0  0  0  0
   11.2750   12.0990    0.2800 H   0  0  0  0  0  0  0  0  0  0  0  0
  1 29  1  0  0  0  0
  1  2  2  0  0  0  0
  2 30  1  0  0  0  0
  3  1  1  0  0  0  0
  4  2  1  0  0  0  0
  4 32  1  0  0  0  0
  5  3  2  0  0  0  0
  5  6  1  0  0  0  0
  6  4  2  0  0  0  0
  7  8  2  0  0  0  0
  7  6  1  0  0  0  0
  8 34  1  0  0  0  0
  9  7  1  0  0  0  0
 10  8  1  0  0  0  0
 11  9  2  0  0  0  0
 12 13  1  0  0  0  0
 12  9  1  0  0  0  0
 13 10  2  0  0  0  0
 14 15  1  0  0  0  0
 14 11  1  0  0  0  0
 15 12  2  0  0  0  0
 16 18  1  0  0  0  0
 16 13  1  0  0  0  0
 17 16  2  0  0  0  0
 19 20  1  0  0  0  0
 19 17  1  0  0  0  0
 20 18  2  0  0  0  0
 21 20  1  0  0  0  0
 21 23  2  0  0  0  0
 22 24  2  0  0  0  0
 22 21  1  0  0  0  0
 23 25  1  0  0  0  0
 24 26  1  0  0  0  0
 25 27  2  0  0  0  0
 26 23  1  0  0  0  0
 26 28  2  0  0  0  0
 27 37  1  0  0  0  0
 28 27  1  0  0  0  0
 31  3  1  0  0  0  0
 33  5  1  0  0  0  0
 35 19  1  0  0  0  0
 36 24  1  0  0  0  0
 38 28  1  0  0  0  0
M  END
$$$$
scan_sander_basal_param/min_pdbs/min_pdb_C306_105.pdb
 OpenBabel10021702533D

 38 43  0  0  0  0  0  0  0  0999 V2000
   -0.2380    0.1830    0.6390 C   0  0  0  0  0  0  0  0  0  0  0  0
   -0.1240    1.1170    1.6810 C   0  0  0  0  0  0  0  0  0  0  0  0
    0.4620    0.3820   -0.5620 C   0  0  0  0  0  0  0  0  0  0  0  0
    0.6910    2.2500    1.5210 C   0  0  0  0  0  0  0  0  0  0  0  0
    1.2760    1.5150   -0.7200 C   0  0  0  0  0  0  0  0  0  0  0  0
    1.4010    2.4660    0.3180 C   0  0  0  0  0  0  0  0  0  0  0  0
    2.2710    3.6610    0.1520 C   0  0  0  0  0  0  0  0  0  0  0  0
    3.6780    3.5550    0.2080 C   0  0  0  0  0  0  0  0  0  0  0  0
    1.7550    4.9530   -0.0800 C   0  0  0  0  0  0  0  0  0  0  0  0
    4.5120    4.6040    0.0580 N   0  0  0  0  0  0  0  0  0  0  0  0
    0.4390    5.2300   -0.1720 N   0  0  0  0  0  0  0  0  0  0  0  0
    2.6050    6.0400   -0.2350 C   0  0  0  0  0  0  0  0  0  0  0  0
    4.0080    5.8450   -0.1550 C   0  0  0  0  0  0  0  0  0  0  0  0
    0.3710    6.8400   -0.4490 S   0  0  0  0  0  0  0  0  0  0  0  0
    1.9640    7.2090   -0.4590 N   0  0  0  0  0  0  0  0  0  0  0  0
    5.0020    6.9260   -0.3120 C   0  0  0  0  0  0  0  0  0  0  0  0
    4.7170    8.2210   -0.3990 N   0  0  0  0  0  0  0  0  0  0  0  0
    6.7170    6.5380   -0.3960 B   0  0  0  0  0  0  0  0  0  0  0  0
    5.8520    8.9880   -0.5370 C   0  0  0  0  0  0  0  0  0  0  0  0
    7.0060    8.2450   -0.5580 C   0  0  0  0  0  0  0  0  0  0  0  0
    8.3060    8.8490   -0.6600 C   0  0  0  0  0  0  0  0  0  0  0  0
    9.6930    8.1810   -1.5470 C   0  0  0  0  0  0  0  0  0  0  0  0
    8.6620   10.0460   -0.0920 C   0  0  0  0  0  0  0  0  0  0  0  0
   10.7250    9.5610   -1.1130 C   0  0  0  0  0  0  0  0  0  0  0  0
    7.7640   11.1060    0.9570 S   0  0  0  0  0  0  0  0  0  0  0  0
    9.9760   10.4020   -0.3410 C   0  0  0  0  0  0  0  0  0  0  0  0
    9.2360   12.1250    1.0280 C   0  0  0  0  0  0  0  0  0  0  0  0
   10.3100   11.6210    0.3040 C   0  0  0  0  0  0  0  0  0  0  0  0
   -0.8690   -0.6930    0.7620 H   0  0  0  0  0  0  0  0  0  0  0  0
   -0.6670    0.9650    2.6100 H   0  0  0  0  0  0  0  0  0  0  0  0
    0.3720   -0.3400   -1.3690 H   0  0  0  0  0  0  0  0  0  0  0  0
    0.7740    2.9720    2.3280 H   0  0  0  0  0  0  0  0  0  0  0  0
    1.8120    1.6660   -1.6520 H   0  0  0  0  0  0  0  0  0  0  0  0
    4.1490    2.5870    0.3790 H   0  0  0  0  0  0  0  0  0  0  0  0
    5.7540   10.0610   -0.6330 H   0  0  0  0  0  0  0  0  0  0  0  0
   11.7570    9.6300   -1.4270 H   0  0  0  0  0  0  0  0  0  0  0  0
    9.2050   13.0330    1.6180 H   0  0  0  0  0  0  0  0  0  0  0  0
   11.2870   12.0850    0.2410 H   0  0  0  0  0  0  0  0  0  0  0  0
  1 29  1  0  0  0  0
  1  2  2  0  0  0  0
  2 30  1  0  0  0  0
  3  1  1  0  0  0  0
  4  2  1  0  0  0  0
  4 32  1  0  0  0  0
  5  3  2  0  0  0  0
  5  6  1  0  0  0  0
  6  4  2  0  0  0  0
  7  8  2  0  0  0  0
  7  6  1  0  0  0  0
  8 34  1  0  0  0  0
  9  7  1  0  0  0  0
 10  8  1  0  0  0  0
 11  9  2  0  0  0  0
 12 13  1  0  0  0  0
 12  9  1  0  0  0  0
 13 10  2  0  0  0  0
 14 11  1  0  0  0  0
 15 14  1  0  0  0  0
 15 12  2  0  0  0  0
 16 13  1  0  0  0  0
 17 16  2  0  0  0  0
 18 16  1  0  0  0  0
 19 17  1  0  0  0  0
 20 19  1  0  0  0  0
 20 18  2  0  0  0  0
 21 20  1  0  0  0  0
 21 23  2  0  0  0  0
 22 24  2  0  0  0  0
 22 21  1  0  0  0  0
 23 25  1  0  0  0  0
 24 26  1  0  0  0  0
 25 27  2  0  0  0  0
 26 23  1  0  0  0  0
 26 28  2  0  0  0  0
 27 37  1  0  0  0  0
 28 27  1  0  0  0  0
 31  3  1  0  0  0  0
 33  5  1  0  0  0  0
 35 19  1  0  0  0  0
 36 24  1  0  0  0  0
 38 28  1  0  0  0  0
M  END
$$$$
scan_sander_basal_param/min_pdbs/min_pdb_C306_120.pdb
 OpenBabel10021702533D

 38 43  0  0  0  0  0  0  0  0999 V2000
   -0.2090    0.1530    0.6150 C   0  0  0  0  0  0  0  0  0  0  0  0
   -0.2980    1.1980    1.5480 C   0  0  0  0  0  0  0  0  0  0  0  0
    0.6800    0.2520   -0.4670 C   0  0  0  0  0  0  0  0  0  0  0  0
    0.5040    2.3410    1.3990 C   0  0  0  0  0  0  0  0  0  0  0  0
    1.4810    1.3960   -0.6140 C   0  0  0  0  0  0  0  0  0  0  0  0
    1.4040    2.4600    0.3140 C   0  0  0  0  0  0  0  0  0  0  0  0
    2.2650    3.6660    0.1590 C   0  0  0  0  0  0  0  0  0  0  0  0
    3.6730    3.5570    0.1500 C   0  0  0  0  0  0  0  0  0  0  0  0
    1.7440    4.9680   -0.0040 C   0  0  0  0  0  0  0  0  0  0  0  0
    4.5040    4.6100    0.0060 N   0  0  0  0  0  0  0  0  0  0  0  0
    0.4270    5.2530   -0.0360 N   0  0  0  0  0  0  0  0  0  0  0  0
    2.5920    6.0580   -0.1530 C   0  0  0  0  0  0  0  0  0  0  0  0
    3.9960    5.8590   -0.1390 C   0  0  0  0  0  0  0  0  0  0  0  0
    0.3540    6.8720   -0.2520 S   0  0  0  0  0  0  0  0  0  0  0  0
    1.9470    7.2360   -0.3100 N   0  0  0  0  0  0  0  0  0  0  0  0
    4.9860    6.9430   -0.2960 C   0  0  0  0  0  0  0  0  0  0  0  0
    4.7020    8.2410   -0.3220 N   0  0  0  0  0  0  0  0  0  0  0  0
    6.6950    6.5550   -0.4650 B   0  0  0  0  0  0  0  0  0  0  0  0
    5.8330    9.0110   -0.4770 C   0  0  0  0  0  0  0  0  0  0  0  0
    6.9820    8.2660   -0.5740 C   0  0  0  0  0  0  0  0  0  0  0  0
    8.2790    8.8710   -0.7070 C   0  0  0  0  0  0  0  0  0  0  0  0
    9.6260    8.2360   -1.6760 C   0  0  0  0  0  0  0  0  0  0  0  0
    8.6630   10.0460   -0.1100 C   0  0  0  0  0  0  0  0  0  0  0  0
   10.6810    9.5960   -1.2330 C   0  0  0  0  0  0  0  0  0  0  0  0
    7.8130   11.0670    1.0160 S   0  0  0  0  0  0  0  0  0  0  0  0
    9.9660   10.4090   -0.3990 C   0  0  0  0  0  0  0  0  0  0  0  0
    9.2900   12.0800    1.0640 C   0  0  0  0  0  0  0  0  0  0  0  0
   10.3310   11.6010    0.2770 C   0  0  0  0  0  0  0  0  0  0  0  0
   -0.8300   -0.7310    0.7290 H   0  0  0  0  0  0  0  0  0  0  0  0
   -0.9870    1.1230    2.3850 H   0  0  0  0  0  0  0  0  0  0  0  0
    0.7470   -0.5570   -1.1900 H   0  0  0  0  0  0  0  0  0  0  0  0
    0.4300    3.1480    2.1220 H   0  0  0  0  0  0  0  0  0  0  0  0
    2.1640    1.4670   -1.4550 H   0  0  0  0  0  0  0  0  0  0  0  0
    4.1500    2.5840    0.2660 H   0  0  0  0  0  0  0  0  0  0  0  0
    5.7350   10.0870   -0.5280 H   0  0  0  0  0  0  0  0  0  0  0  0
   11.6980    9.6750   -1.5870 H   0  0  0  0  0  0  0  0  0  0  0  0
    9.2870   12.9640    1.6880 H   0  0  0  0  0  0  0  0  0  0  0  0
   11.3070   12.0660    0.1910 H   0  0  0  0  0  0  0  0  0  0  0  0
  1 29  1  0  0  0  0
  1  2  2  0  0  0  0
  2 30  1  0  0  0  0
  3  1  1  0  0  0  0
  4  2  1  0  0  0  0
  4 32  1  0  0  0  0
  5  3  2  0  0  0  0
  5  6  1  0  0  0  0
  6  4  2  0  0  0  0
  7  6  1  0  0  0  0
  8  7  2  0  0  0  0
  8 34  1  0  0  0  0
  9  7  1  0  0  0  0
 10  8  1  0  0  0  0
 11  9  2  0  0  0  0
 12 13  1  0  0  0  0
 12  9  1  0  0  0  0
 13 10  2  0  0  0  0
 14 11  1  0  0  0  0
 15 14  1  0  0  0  0
 15 12  2  0  0  0  0
 16 13  1  0  0  0  0
 17 16  2  0  0  0  0
 18 16  1  0  0  0  0
 19 17  1  0  0  0  0
 20 19  1  0  0  0  0
 20 18  2  0  0  0  0
 21 20  1  0  0  0  0
 21 23  2  0  0  0  0
 22 24  2  0  0  0  0
 22 21  1  0  0  0  0
 23 25  1  0  0  0  0
 24 26  1  0  0  0  0
 25 27  2  0  0  0  0
 26 23  1  0  0  0  0
 26 28  2  0  0  0  0
 27 37  1  0  0  0  0
 28 27  1  0  0  0  0
 31  3  1  0  0  0  0
 33  5  1  0  0  0  0
 35 19  1  0  0  0  0
 36 24  1  0  0  0  0
 38 28  1  0  0  0  0
M  END
$$$$
scan_sander_basal_param/min_pdbs/min_pdb_C306_135.pdb
 OpenBabel10021702533D

 38 43  0  0  0  0  0  0  0  0999 V2000
   -0.1770    0.1150    0.5950 C   0  0  0  0  0  0  0  0  0  0  0  0
   -0.4530    1.2460    1.3780 C   0  0  0  0  0  0  0  0  0  0  0  0
    0.8820    0.1420   -0.3250 C   0  0  0  0  0  0  0  0  0  0  0  0
    0.3290    2.4040    1.2380 C   0  0  0  0  0  0  0  0  0  0  0  0
    1.6620    1.3020   -0.4630 C   0  0  0  0  0  0  0  0  0  0  0  0
    1.3980    2.4580    0.3120 C   0  0  0  0  0  0  0  0  0  0  0  0
    2.2490    3.6790    0.1640 C   0  0  0  0  0  0  0  0  0  0  0  0
    3.6560    3.5710    0.0850 C   0  0  0  0  0  0  0  0  0  0  0  0
    1.7290    4.9910    0.0680 C   0  0  0  0  0  0  0  0  0  0  0  0
    4.4850    4.6250   -0.0530 N   0  0  0  0  0  0  0  0  0  0  0  0
    0.4140    5.2900    0.0850 N   0  0  0  0  0  0  0  0  0  0  0  0
    2.5770    6.0830   -0.0780 C   0  0  0  0  0  0  0  0  0  0  0  0
    3.9790    5.8800   -0.1290 C   0  0  0  0  0  0  0  0  0  0  0  0
    0.3440    6.9160   -0.0730 S   0  0  0  0  0  0  0  0  0  0  0  0
    1.9360    7.2700   -0.1720 N   0  0  0  0  0  0  0  0  0  0  0  0
    4.9680    6.9650   -0.2840 C   0  0  0  0  0  0  0  0  0  0  0  0
    4.6910    8.2640   -0.2490 N   0  0  0  0  0  0  0  0  0  0  0  0
    6.6660    6.5770   -0.5390 B   0  0  0  0  0  0  0  0  0  0  0  0
    5.8190    9.0350   -0.4200 C   0  0  0  0  0  0  0  0  0  0  0  0
    6.9590    8.2900   -0.5920 C   0  0  0  0  0  0  0  0  0  0  0  0
    8.2540    8.8940   -0.7530 C   0  0  0  0  0  0  0  0  0  0  0  0
    9.5570    8.2910   -1.7980 C   0  0  0  0  0  0  0  0  0  0  0  0
    8.6670   10.0430   -0.1250 C   0  0  0  0  0  0  0  0  0  0  0  0
   10.6360    9.6280   -1.3440 C   0  0  0  0  0  0  0  0  0  0  0  0
    7.8680   11.0220    1.0720 S   0  0  0  0  0  0  0  0  0  0  0  0
    9.9610   10.4100   -0.4520 C   0  0  0  0  0  0  0  0  0  0  0  0
    9.3520   12.0260    1.1010 C   0  0  0  0  0  0  0  0  0  0  0  0
   10.3590   11.5740    0.2560 C   0  0  0  0  0  0  0  0  0  0  0  0
   -0.7820   -0.7810    0.7020 H   0  0  0  0  0  0  0  0  0  0  0  0
   -1.2710    1.2260    2.0940 H   0  0  0  0  0  0  0  0  0  0  0  0
    1.0960   -0.7330   -0.9330 H   0  0  0  0  0  0  0  0  0  0  0  0
    0.1100    3.2690    1.8570 H   0  0  0  0  0  0  0  0  0  0  0  0
    2.4740    1.3120   -1.1840 H   0  0  0  0  0  0  0  0  0  0  0  0
    4.1380    2.5950    0.1480 H   0  0  0  0  0  0  0  0  0  0  0  0
    5.7250   10.1120   -0.4250 H   0  0  0  0  0  0  0  0  0  0  0  0
   11.6400    9.7170   -1.7350 H   0  0  0  0  0  0  0  0  0  0  0  0
    9.3790   12.8850    1.7600 H   0  0  0  0  0  0  0  0  0  0  0  0
   11.3330   12.0370    0.1500 H   0  0  0  0  0  0  0  0  0  0  0  0
  1 29  1  0  0  0  0
  1  2  2  0  0  0  0
  2 30  1  0  0  0  0
  3  1  1  0  0  0  0
  4  2  1  0  0  0  0
  4 32  1  0  0  0  0
  5  3  2  0  0  0  0
  5  6  1  0  0  0  0
  6  4  2  0  0  0  0
  7  6  1  0  0  0  0
  8 34  1  0  0  0  0
  8  7  2  0  0  0  0
  9 11  2  0  0  0  0
  9  7  1  0  0  0  0
 10  8  1  0  0  0  0
 12  9  1  0  0  0  0
 13 12  1  0  0  0  0
 13 10  2  0  0  0  0
 14 11  1  0  0  0  0
 15 12  2  0  0  0  0
 15 14  1  0  0  0  0
 16 17  2  0  0  0  0
 16 13  1  0  0  0  0
 18 16  1  0  0  0  0
 19 17  1  0  0  0  0
 20 18  2  0  0  0  0
 20 19  1  0  0  0  0
 21 20  1  0  0  0  0
 21 23  2  0  0  0  0
 22 24  2  0  0  0  0
 22 21  1  0  0  0  0
 23 25  1  0  0  0  0
 24 26  1  0  0  0  0
 25 27  2  0  0  0  0
 26 23  1  0  0  0  0
 26 28  2  0  0  0  0
 27 37  1  0  0  0  0
 28 27  1  0  0  0  0
 31  3  1  0  0  0  0
 33  5  1  0  0  0  0
 35 19  1  0  0  0  0
 36 24  1  0  0  0  0
 38 28  1  0  0  0  0
M  END
$$$$
scan_sander_basal_param/min_pdbs/min_pdb_C306_150.pdb
 OpenBabel10021702533D

 38 43  0  0  0  0  0  0  0  0999 V2000
   -0.1490    0.0660    0.5630 C   0  0  0  0  0  0  0  0  0  0  0  0
   -0.5840    1.2510    1.1720 C   0  0  0  0  0  0  0  0  0  0  0  0
    1.0470    0.0580   -0.1660 C   0  0  0  0  0  0  0  0  0  0  0  0
    0.1740    2.4260    1.0470 C   0  0  0  0  0  0  0  0  0  0  0  0
    1.8040    1.2350   -0.2870 C   0  0  0  0  0  0  0  0  0  0  0  0
    1.3860    2.4530    0.3080 C   0  0  0  0  0  0  0  0  0  0  0  0
    2.2240    3.6970    0.1670 C   0  0  0  0  0  0  0  0  0  0  0  0
    3.6290    3.5960    0.0130 C   0  0  0  0  0  0  0  0  0  0  0  0
    1.7130    5.0220    0.1500 C   0  0  0  0  0  0  0  0  0  0  0  0
    4.4580    4.6510   -0.1150 N   0  0  0  0  0  0  0  0  0  0  0  0
    0.4040    5.3410    0.2150 N   0  0  0  0  0  0  0  0  0  0  0  0
    2.5640    6.1150    0.0110 C   0  0  0  0  0  0  0  0  0  0  0  0
    3.9590    5.9080   -0.1120 C   0  0  0  0  0  0  0  0  0  0  0  0
    0.3430    6.9720    0.1280 S   0  0  0  0  0  0  0  0  0  0  0  0
    1.9340    7.3110   -0.0130 N   0  0  0  0  0  0  0  0  0  0  0  0
    4.9500    6.9940   -0.2640 C   0  0  0  0  0  0  0  0  0  0  0  0
    4.6870    8.2920   -0.1590 N   0  0  0  0  0  0  0  0  0  0  0  0
    6.6320    6.6060   -0.6110 B   0  0  0  0  0  0  0  0  0  0  0  0
    5.8120    9.0620   -0.3470 C   0  0  0  0  0  0  0  0  0  0  0  0
    6.9370    8.3180   -0.6030 C   0  0  0  0  0  0  0  0  0  0  0  0
    8.2270    8.9200   -0.7980 C   0  0  0  0  0  0  0  0  0  0  0  0
    9.4760    8.3550   -1.9280 C   0  0  0  0  0  0  0  0  0  0  0  0
    8.6790   10.0380   -0.1420 C   0  0  0  0  0  0  0  0  0  0  0  0
   10.5860    9.6640   -1.4680 C   0  0  0  0  0  0  0  0  0  0  0  0
    7.9450   10.9690    1.1330 S   0  0  0  0  0  0  0  0  0  0  0  0
    9.9590   10.4110   -0.5120 C   0  0  0  0  0  0  0  0  0  0  0  0
    9.4360   11.9620    1.1360 C   0  0  0  0  0  0  0  0  0  0  0  0
   10.3990   11.5400    0.2260 C   0  0  0  0  0  0  0  0  0  0  0  0
   -0.7360   -0.8440    0.6590 H   0  0  0  0  0  0  0  0  0  0  0  0
   -1.5070    1.2590    1.7470 H   0  0  0  0  0  0  0  0  0  0  0  0
    1.3870   -0.8590   -0.6410 H   0  0  0  0  0  0  0  0  0  0  0  0
   -0.1750    3.3160    1.5580 H   0  0  0  0  0  0  0  0  0  0  0  0
    2.7150    1.2010   -0.8750 H   0  0  0  0  0  0  0  0  0  0  0  0
    4.1210    2.6250    0.0250 H   0  0  0  0  0  0  0  0  0  0  0  0
    5.7270   10.1390   -0.3010 H   0  0  0  0  0  0  0  0  0  0  0  0
   11.5710    9.7630   -1.9010 H   0  0  0  0  0  0  0  0  0  0  0  0
    9.5010   12.7910    1.8280 H   0  0  0  0  0  0  0  0  0  0  0  0
   11.3710   12.0020    0.0940 H   0  0  0  0  0  0  0  0  0  0  0  0
  1 29  1  0  0  0  0
  1  2  2  0  0  0  0
  2 30  1  0  0  0  0
  3  1  1  0  0  0  0
  4  2  1  0  0  0  0
  4 32  1  0  0  0  0
  5  3  2  0  0  0  0
  5  6  1  0  0  0  0
  6  4  2  0  0  0  0
  7  6  1  0  0  0  0
  8 34  1  0  0  0  0
  8  7  2  0  0  0  0
  9  7  1  0  0  0  0
  9 11  2  0  0  0  0
 10 13  2  0  0  0  0
 10  8  1  0  0  0  0
 12  9  1  0  0  0  0
 13 12  1  0  0  0  0
 14 11  1  0  0  0  0
 15 12  2  0  0  0  0
 15 14  1  0  0  0  0
 16 17  2  0  0  0  0
 16 13  1  0  0  0  0
 18 20  2  0  0  0  0
 18 16  1  0  0  0  0
 19 35  1  0  0  0  0
 19 17  1  0  0  0  0
 20 19  1  0  0  0  0
 21 20  1  0  0  0  0
 21 23  2  0  0  0  0
 22 24  2  0  0  0  0
 22 21  1  0  0  0  0
 23 25  1  0  0  0  0
 24 26  1  0  0  0  0
 25 27  2  0  0  0  0
 26 23  1  0  0  0  0
 26 28  2  0  0  0  0
 27 37  1  0  0  0  0
 28 27  1  0  0  0  0
 31  3  1  0  0  0  0
 33  5  1  0  0  0  0
 36 24  1  0  0  0  0
 38 28  1  0  0  0  0
M  END
$$$$
scan_sander_basal_param/min_pdbs/min_pdb_C306_165.pdb
 OpenBabel10021702533D

 38 43  0  0  0  0  0  0  0  0999 V2000
   -0.1340    0.0150    0.5330 C   0  0  0  0  0  0  0  0  0  0  0  0
   -0.6960    1.2330    0.9280 C   0  0  0  0  0  0  0  0  0  0  0  0
    1.1710   -0.0090    0.0290 C   0  0  0  0  0  0  0  0  0  0  0  0
    0.0430    2.4230    0.8160 C   0  0  0  0  0  0  0  0  0  0  0  0
    1.9070    1.1820   -0.0800 C   0  0  0  0  0  0  0  0  0  0  0  0
    1.3710    2.4450    0.3030 C   0  0  0  0  0  0  0  0  0  0  0  0
    2.2020    3.7110    0.1690 C   0  0  0  0  0  0  0  0  0  0  0  0
    3.6050    3.6270   -0.0440 C   0  0  0  0  0  0  0  0  0  0  0  0
    1.7060    5.0480    0.2240 C   0  0  0  0  0  0  0  0  0  0  0  0
    4.4340    4.6810   -0.1640 N   0  0  0  0  0  0  0  0  0  0  0  0
    0.4060    5.3910    0.3490 N   0  0  0  0  0  0  0  0  0  0  0  0
    2.5590    6.1430    0.0930 C   0  0  0  0  0  0  0  0  0  0  0  0
    3.9460    5.9380   -0.0940 C   0  0  0  0  0  0  0  0  0  0  0  0
    0.3580    7.0230    0.3290 S   0  0  0  0  0  0  0  0  0  0  0  0
    1.9440    7.3460    0.1400 N   0  0  0  0  0  0  0  0  0  0  0  0
    4.9380    7.0230   -0.2440 C   0  0  0  0  0  0  0  0  0  0  0  0
    4.6890    8.3180   -0.0790 N   0  0  0  0  0  0  0  0  0  0  0  0
    6.6010    6.6390   -0.6730 B   0  0  0  0  0  0  0  0  0  0  0  0
    5.8120    9.0880   -0.2840 C   0  0  0  0  0  0  0  0  0  0  0  0
    6.9200    8.3470   -0.6130 C   0  0  0  0  0  0  0  0  0  0  0  0
    8.2060    8.9480   -0.8370 C   0  0  0  0  0  0  0  0  0  0  0  0
    9.4040    8.4180   -2.0380 C   0  0  0  0  0  0  0  0  0  0  0  0
    8.6930   10.0370   -0.1580 C   0  0  0  0  0  0  0  0  0  0  0  0
   10.5420    9.7020   -1.5740 C   0  0  0  0  0  0  0  0  0  0  0  0
    8.0180   10.9240    1.1790 S   0  0  0  0  0  0  0  0  0  0  0  0
    9.9600   10.4160   -0.5660 C   0  0  0  0  0  0  0  0  0  0  0  0
    9.5160   11.9060    1.1590 C   0  0  0  0  0  0  0  0  0  0  0  0
   10.4380   11.5130    0.1950 C   0  0  0  0  0  0  0  0  0  0  0  0
   -0.7050   -0.9060    0.6190 H   0  0  0  0  0  0  0  0  0  0  0  0
   -1.7050    1.2590    1.3320 H   0  0  0  0  0  0  0  0  0  0  0  0
    1.6130   -0.9510   -0.2850 H   0  0  0  0  0  0  0  0  0  0  0  0
   -0.4340    3.3220    1.1780 H   0  0  0  0  0  0  0  0  0  0  0  0
    2.8990    1.1060   -0.5060 H   0  0  0  0  0  0  0  0  0  0  0  0
    4.1150    2.6680   -0.0810 H   0  0  0  0  0  0  0  0  0  0  0  0
    5.7380   10.1630   -0.1940 H   0  0  0  0  0  0  0  0  0  0  0  0
   11.5090    9.8110   -2.0430 H   0  0  0  0  0  0  0  0  0  0  0  0
    9.6150   12.7080    1.8790 H   0  0  0  0  0  0  0  0  0  0  0  0
   11.4080   11.9730    0.0420 H   0  0  0  0  0  0  0  0  0  0  0  0
  1 29  1  0  0  0  0
  1  2  2  0  0  0  0
  2 30  1  0  0  0  0
  3  1  1  0  0  0  0
  4  2  1  0  0  0  0
  4 32  1  0  0  0  0
  5  3  2  0  0  0  0
  5  6  1  0  0  0  0
  6  4  2  0  0  0  0
  7  9  1  0  0  0  0
  7  6  1  0  0  0  0
  8  7  2  0  0  0  0
  9 11  2  0  0  0  0
 10 13  2  0  0  0  0
 10  8  1  0  0  0  0
 12 15  2  0  0  0  0
 12  9  1  0  0  0  0
 13 12  1  0  0  0  0
 14 11  1  0  0  0  0
 15 14  1  0  0  0  0
 16 13  1  0  0  0  0
 16 17  2  0  0  0  0
 18 20  2  0  0  0  0
 18 16  1  0  0  0  0
 19 35  1  0  0  0  0
 19 17  1  0  0  0  0
 20 19  1  0  0  0  0
 21 20  1  0  0  0  0
 21 23  2  0  0  0  0
 22 24  2  0  0  0  0
 22 21  1  0  0  0  0
 23 25  1  0  0  0  0
 24 26  1  0  0  0  0
 26 23  1  0  0  0  0
 26 28  2  0  0  0  0
 27 25  2  0  0  0  0
 27 37  1  0  0  0  0
 28 27  1  0  0  0  0
 31  3  1  0  0  0  0
 33  5  1  0  0  0  0
 34  8  1  0  0  0  0
 36 24  1  0  0  0  0
 38 28  1  0  0  0  0
M  END
$$$$
scan_sander_basal_param/min_pdbs/min_pdb_C306_180.pdb
 OpenBabel10021702533D

 38 43  0  0  0  0  0  0  0  0999 V2000
   -0.1380   -0.0140    0.4600 C   0  0  0  0  0  0  0  0  0  0  0  0
   -0.7790    1.2190    0.6160 C   0  0  0  0  0  0  0  0  0  0  0  0
    1.2380   -0.0420    0.2210 C   0  0  0  0  0  0  0  0  0  0  0  0
   -0.0470    2.4140    0.5310 C   0  0  0  0  0  0  0  0  0  0  0  0
    1.9670    1.1560    0.1380 C   0  0  0  0  0  0  0  0  0  0  0  0
    1.3590    2.4390    0.2870 C   0  0  0  0  0  0  0  0  0  0  0  0
    2.1920    3.7160    0.1870 C   0  0  0  0  0  0  0  0  0  0  0  0
    3.5930    3.6420   -0.0590 C   0  0  0  0  0  0  0  0  0  0  0  0
    1.7100    5.0560    0.3170 C   0  0  0  0  0  0  0  0  0  0  0  0
    4.4210    4.6970   -0.1690 N   0  0  0  0  0  0  0  0  0  0  0  0
    0.4290    5.4100    0.5470 N   0  0  0  0  0  0  0  0  0  0  0  0
    2.5660    6.1530    0.2050 C   0  0  0  0  0  0  0  0  0  0  0  0
    3.9440    5.9520   -0.0390 C   0  0  0  0  0  0  0  0  0  0  0  0
    0.3920    7.0410    0.6030 S   0  0  0  0  0  0  0  0  0  0  0  0
    1.9680    7.3580    0.3400 N   0  0  0  0  0  0  0  0  0  0  0  0
    4.9360    7.0370   -0.1880 C   0  0  0  0  0  0  0  0  0  0  0  0
    4.7010    8.3270    0.0290 N   0  0  0  0  0  0  0  0  0  0  0  0
    6.5800    6.6600   -0.6900 B   0  0  0  0  0  0  0  0  0  0  0  0
    5.8180    9.0990   -0.1980 C   0  0  0  0  0  0  0  0  0  0  0  0
    6.9070    8.3650   -0.5980 C   0  0  0  0  0  0  0  0  0  0  0  0
    8.1840    8.9690   -0.8640 C   0  0  0  0  0  0  0  0  0  0  0  0
    9.3240    8.4690   -2.1320 C   0  0  0  0  0  0  0  0  0  0  0  0
    8.7060   10.0370   -0.1790 C   0  0  0  0  0  0  0  0  0  0  0  0
   10.4860    9.7380   -1.6880 C   0  0  0  0  0  0  0  0  0  0  0  0
    8.0950   10.8910    1.2100 S   0  0  0  0  0  0  0  0  0  0  0  0
    9.9530   10.4260   -0.6350 C   0  0  0  0  0  0  0  0  0  0  0  0
    9.5930   11.8720    1.1450 C   0  0  0  0  0  0  0  0  0  0  0  0
   10.4690   11.5030    0.1300 C   0  0  0  0  0  0  0  0  0  0  0  0
   -0.7040   -0.9390    0.5250 H   0  0  0  0  0  0  0  0  0  0  0  0
   -1.8490    1.2520    0.8020 H   0  0  0  0  0  0  0  0  0  0  0  0
    1.7460   -0.9950    0.1000 H   0  0  0  0  0  0  0  0  0  0  0  0
   -0.6170    3.3190    0.6630 H   0  0  0  0  0  0  0  0  0  0  0  0
    3.0250    1.0520   -0.0490 H   0  0  0  0  0  0  0  0  0  0  0  0
    4.1050    2.6950   -0.1820 H   0  0  0  0  0  0  0  0  0  0  0  0
    5.7520   10.1710   -0.0730 H   0  0  0  0  0  0  0  0  0  0  0  0
   11.4300    9.8590   -2.1990 H   0  0  0  0  0  0  0  0  0  0  0  0
    9.7270   12.6560    1.8800 H   0  0  0  0  0  0  0  0  0  0  0  0
   11.4310   11.9660   -0.0570 H   0  0  0  0  0  0  0  0  0  0  0  0
  1 29  1  0  0  0  0
  1  2  2  0  0  0  0
  2 30  1  0  0  0  0
  3  1  1  0  0  0  0
  4  2  1  0  0  0  0
  4 32  1  0  0  0  0
  5  3  2  0  0  0  0
  5  6  1  0  0  0  0
  6  4  2  0  0  0  0
  7  6  1  0  0  0  0
  7  9  1  0  0  0  0
  8  7  2  0  0  0  0
  9 11  2  0  0  0  0
 10  8  1  0  0  0  0
 10 13  2  0  0  0  0
 11 14  1  0  0  0  0
 12  9  1  0  0  0  0
 12 15  2  0  0  0  0
 13 12  1  0  0  0  0
 15 14  1  0  0  0  0
 16 13  1  0  0  0  0
 16 17  2  0  0  0  0
 18 20  2  0  0  0  0
 18 16  1  0  0  0  0
 19 35  1  0  0  0  0
 19 17  1  0  0  0  0
 20 19  1  0  0  0  0
 21 20  1  0  0  0  0
 21 23  2  0  0  0  0
 22 24  2  0  0  0  0
 22 21  1  0  0  0  0
 23 25  1  0  0  0  0
 24 26  1  0  0  0  0
 26 23  1  0  0  0  0
 26 28  2  0  0  0  0
 27 25  2  0  0  0  0
 27 37  1  0  0  0  0
 28 27  1  0  0  0  0
 31  3  1  0  0  0  0
 33  5  1  0  0  0  0
 34  8  1  0  0  0  0
 36 24  1  0  0  0  0
 38 28  1  0  0  0  0
M  END
$$$$
scan_sander_basal_param/min_pdbs/min_pdb_C306_195.pdb
 OpenBabel10021702533D

 38 43  0  0  0  0  0  0  0  0999 V2000
   -0.1310    0.0050    0.4380 C   0  0  0  0  0  0  0  0  0  0  0  0
   -0.7920    1.2350    0.3460 C   0  0  0  0  0  0  0  0  0  0  0  0
    1.2670   -0.0260    0.4450 C   0  0  0  0  0  0  0  0  0  0  0  0
   -0.0560    2.4280    0.2630 C   0  0  0  0  0  0  0  0  0  0  0  0
    1.9990    1.1700    0.3600 C   0  0  0  0  0  0  0  0  0  0  0  0
    1.3680    2.4440    0.2700 C   0  0  0  0  0  0  0  0  0  0  0  0
    2.1990    3.7130    0.1820 C   0  0  0  0  0  0  0  0  0  0  0  0
    3.5860    3.6400   -0.1230 C   0  0  0  0  0  0  0  0  0  0  0  0
    1.7230    5.0430    0.3900 C   0  0  0  0  0  0  0  0  0  0  0  0
    4.4100    4.6990   -0.2360 N   0  0  0  0  0  0  0  0  0  0  0  0
    0.4630    5.3720    0.7420 N   0  0  0  0  0  0  0  0  0  0  0  0
    2.5750    6.1420    0.2830 C   0  0  0  0  0  0  0  0  0  0  0  0
    3.9390    5.9490   -0.0340 C   0  0  0  0  0  0  0  0  0  0  0  0
    0.4310    6.9990    0.8710 S   0  0  0  0  0  0  0  0  0  0  0  0
    1.9860    7.3370    0.5130 N   0  0  0  0  0  0  0  0  0  0  0  0
    4.9240    7.0390   -0.1880 C   0  0  0  0  0  0  0  0  0  0  0  0
    4.7010    8.3200    0.0900 N   0  0  0  0  0  0  0  0  0  0  0  0
    6.5430    6.6830   -0.7810 B   0  0  0  0  0  0  0  0  0  0  0  0
    5.8100    9.0990   -0.1510 C   0  0  0  0  0  0  0  0  0  0  0  0
    6.8800    8.3820   -0.6240 C   0  0  0  0  0  0  0  0  0  0  0  0
    8.1490    8.9940   -0.9100 C   0  0  0  0  0  0  0  0  0  0  0  0
    9.2380    8.5500   -2.2410 C   0  0  0  0  0  0  0  0  0  0  0  0
    8.6990   10.0290   -0.1970 C   0  0  0  0  0  0  0  0  0  0  0  0
   10.4220    9.7940   -1.7810 C   0  0  0  0  0  0  0  0  0  0  0  0
    8.1440   10.8180    1.2530 S   0  0  0  0  0  0  0  0  0  0  0  0
    9.9310   10.4340   -0.6790 C   0  0  0  0  0  0  0  0  0  0  0  0
    9.6440   11.7950    1.1800 C   0  0  0  0  0  0  0  0  0  0  0  0
   10.4800   11.4710    0.1170 C   0  0  0  0  0  0  0  0  0  0  0  0
   -0.7000   -0.9190    0.5030 H   0  0  0  0  0  0  0  0  0  0  0  0
   -1.8780    1.2660    0.3290 H   0  0  0  0  0  0  0  0  0  0  0  0
    1.7870   -0.9770    0.5220 H   0  0  0  0  0  0  0  0  0  0  0  0
   -0.6260    3.3390    0.1530 H   0  0  0  0  0  0  0  0  0  0  0  0
    3.0780    1.0850    0.4010 H   0  0  0  0  0  0  0  0  0  0  0  0
    4.0690    2.6910   -0.3350 H   0  0  0  0  0  0  0  0  0  0  0  0
    5.7520   10.1660    0.0230 H   0  0  0  0  0  0  0  0  0  0  0  0
   11.3480    9.9350   -2.3200 H   0  0  0  0  0  0  0  0  0  0  0  0
    9.8100   12.5420    1.9460 H   0  0  0  0  0  0  0  0  0  0  0  0
   11.4380   11.9390   -0.0820 H   0  0  0  0  0  0  0  0  0  0  0  0
  1  3  1  0  0  0  0
  1 29  1  0  0  0  0
  2  1  2  0  0  0  0
  3 31  1  0  0  0  0
  4  6  2  0  0  0  0
  4  2  1  0  0  0  0
  5 33  1  0  0  0  0
  5  3  2  0  0  0  0
  6  5  1  0  0  0  0
  7  6  1  0  0  0  0
  7  9  1  0  0  0  0
  8  7  2  0  0  0  0
  9 11  2  0  0  0  0
 10  8  1  0  0  0  0
 10 13  2  0  0  0  0
 11 14  1  0  0  0  0
 12  9  1  0  0  0  0
 12 15  2  0  0  0  0
 13 12  1  0  0  0  0
 15 14  1  0  0  0  0
 16 13  1  0  0  0  0
 16 17  2  0  0  0  0
 18 20  2  0  0  0  0
 18 16  1  0  0  0  0
 19 35  1  0  0  0  0
 19 17  1  0  0  0  0
 20 19  1  0  0  0  0
 21 20  1  0  0  0  0
 21 23  2  0  0  0  0
 22 24  2  0  0  0  0
 22 21  1  0  0  0  0
 23 25  1  0  0  0  0
 24 26  1  0  0  0  0
 26 23  1  0  0  0  0
 26 28  2  0  0  0  0
 27 25  2  0  0  0  0
 27 37  1  0  0  0  0
 28 27  1  0  0  0  0
 30  2  1  0  0  0  0
 32  4  1  0  0  0  0
 34  8  1  0  0  0  0
 36 24  1  0  0  0  0
 38 28  1  0  0  0  0
M  END
$$$$
scan_sander_basal_param/min_pdbs/min_pdb_C306_210.pdb
 OpenBabel10021702533D

 38 43  0  0  0  0  0  0  0  0999 V2000
   -0.1460    0.0500    0.3990 C   0  0  0  0  0  0  0  0  0  0  0  0
   -0.7700    1.2620    0.0740 C   0  0  0  0  0  0  0  0  0  0  0  0
    1.2330    0.0230    0.6480 C   0  0  0  0  0  0  0  0  0  0  0  0
   -0.0170    2.4450    0.0010 C   0  0  0  0  0  0  0  0  0  0  0  0
    1.9840    1.2080    0.5720 C   0  0  0  0  0  0  0  0  0  0  0  0
    1.3800    2.4530    0.2540 C   0  0  0  0  0  0  0  0  0  0  0  0
    2.2150    3.7040    0.1750 C   0  0  0  0  0  0  0  0  0  0  0  0
    3.5810    3.6270   -0.1950 C   0  0  0  0  0  0  0  0  0  0  0  0
    1.7480    5.0130    0.4680 C   0  0  0  0  0  0  0  0  0  0  0  0
    4.4040    4.6890   -0.2950 N   0  0  0  0  0  0  0  0  0  0  0  0
    0.5000    5.3060    0.8890 N   0  0  0  0  0  0  0  0  0  0  0  0
    2.5950    6.1130    0.3740 C   0  0  0  0  0  0  0  0  0  0  0  0
    3.9440    5.9300   -0.0150 C   0  0  0  0  0  0  0  0  0  0  0  0
    0.4750    6.9270    1.0990 S   0  0  0  0  0  0  0  0  0  0  0  0
    2.0130    7.2920    0.6890 N   0  0  0  0  0  0  0  0  0  0  0  0
    4.9230    7.0270   -0.1640 C   0  0  0  0  0  0  0  0  0  0  0  0
    4.7130    8.2930    0.1820 N   0  0  0  0  0  0  0  0  0  0  0  0
    6.5110    6.7000   -0.8470 B   0  0  0  0  0  0  0  0  0  0  0  0
    5.8110    9.0840   -0.0730 C   0  0  0  0  0  0  0  0  0  0  0  0
    6.8570    8.3900   -0.6280 C   0  0  0  0  0  0  0  0  0  0  0  0
    8.1120    9.0160   -0.9430 C   0  0  0  0  0  0  0  0  0  0  0  0
    9.1390    8.6350   -2.3420 C   0  0  0  0  0  0  0  0  0  0  0  0
    8.6960   10.0180   -0.2090 C   0  0  0  0  0  0  0  0  0  0  0  0
   10.3440    9.8580   -1.8800 C   0  0  0  0  0  0  0  0  0  0  0  0
    8.2090   10.7390    1.2990 S   0  0  0  0  0  0  0  0  0  0  0  0
    9.9050   10.4460   -0.7290 C   0  0  0  0  0  0  0  0  0  0  0  0
    9.7050   11.7200    1.2030 C   0  0  0  0  0  0  0  0  0  0  0  0
   10.4910   11.4460    0.0890 C   0  0  0  0  0  0  0  0  0  0  0  0
   -0.7290   -0.8650    0.4570 H   0  0  0  0  0  0  0  0  0  0  0  0
   -1.8380    1.2860   -0.1290 H   0  0  0  0  0  0  0  0  0  0  0  0
    1.7190   -0.9140    0.9030 H   0  0  0  0  0  0  0  0  0  0  0  0
   -0.5250    3.3580   -0.2850 H   0  0  0  0  0  0  0  0  0  0  0  0
    3.0450    1.1580    0.7910 H   0  0  0  0  0  0  0  0  0  0  0  0
    4.0320    2.6710   -0.4550 H   0  0  0  0  0  0  0  0  0  0  0  0
    5.7620   10.1410    0.1510 H   0  0  0  0  0  0  0  0  0  0  0  0
   11.2450   10.0240   -2.4530 H   0  0  0  0  0  0  0  0  0  0  0  0
    9.9060   12.4310    1.9940 H   0  0  0  0  0  0  0  0  0  0  0  0
   11.4390   11.9230   -0.1320 H   0  0  0  0  0  0  0  0  0  0  0  0
  1 29  1  0  0  0  0
  1  3  2  0  0  0  0
  2  1  1  0  0  0  0
  3 31  1  0  0  0  0
  4  2  2  0  0  0  0
  4  6  1  0  0  0  0
  5  3  1  0  0  0  0
  5 33  1  0  0  0  0
  6  5  2  0  0  0  0
  7  6  1  0  0  0  0
  7  9  1  0  0  0  0
  8  7  2  0  0  0  0
  9 11  2  0  0  0  0
 10  8  1  0  0  0  0
 10 13  2  0  0  0  0
 11 14  1  0  0  0  0
 12  9  1  0  0  0  0
 12 15  2  0  0  0  0
 13 12  1  0  0  0  0
 15 14  1  0  0  0  0
 16 13  1  0  0  0  0
 16 17  2  0  0  0  0
 18 20  2  0  0  0  0
 18 16  1  0  0  0  0
 19 35  1  0  0  0  0
 19 17  1  0  0  0  0
 20 19  1  0  0  0  0
 21 20  1  0  0  0  0
 21 23  2  0  0  0  0
 22 24  2  0  0  0  0
 22 21  1  0  0  0  0
 23 25  1  0  0  0  0
 24 26  1  0  0  0  0
 26 23  1  0  0  0  0
 26 28  2  0  0  0  0
 27 25  2  0  0  0  0
 27 37  1  0  0  0  0
 28 27  1  0  0  0  0
 30  2  1  0  0  0  0
 32  4  1  0  0  0  0
 34  8  1  0  0  0  0
 36 24  1  0  0  0  0
 38 28  1  0  0  0  0
M  END
$$$$
scan_sander_basal_param/min_pdbs/min_pdb_C306_225.pdb
 OpenBabel10021702533D

 38 43  0  0  0  0  0  0  0  0999 V2000
   -0.6540    0.5720    0.9160 C   0  0  0  0  0  0  0  0  0  0  0  0
   -0.0920    0.6670   -0.3660 C   0  0  0  0  0  0  0  0  0  0  0  0
   -0.2790    1.4830    1.9150 C   0  0  0  0  0  0  0  0  0  0  0  0
    0.8440    1.6760   -0.6480 C   0  0  0  0  0  0  0  0  0  0  0  0
    0.6580    2.4890    1.6300 C   0  0  0  0  0  0  0  0  0  0  0  0
    1.2350    2.6100    0.3420 C   0  0  0  0  0  0  0  0  0  0  0  0
    2.2410    3.6800    0.0600 C   0  0  0  0  0  0  0  0  0  0  0  0
    3.2780    3.9520    0.9810 C   0  0  0  0  0  0  0  0  0  0  0  0
    2.2230    4.4900   -1.0990 C   0  0  0  0  0  0  0  0  0  0  0  0
    4.2170    4.9030    0.7980 N   0  0  0  0  0  0  0  0  0  0  0  0
    1.2980    4.3970   -2.0760 N   0  0  0  0  0  0  0  0  0  0  0  0
    3.1840    5.4760   -1.2940 C   0  0  0  0  0  0  0  0  0  0  0  0
    4.1910    5.6740   -0.3160 C   0  0  0  0  0  0  0  0  0  0  0  0
    1.7140    5.5400   -3.1690 S   0  0  0  0  0  0  0  0  0  0  0  0
    3.0390    6.1670   -2.4460 N   0  0  0  0  0  0  0  0  0  0  0  0
    5.2680    6.6790   -0.4280 C   0  0  0  0  0  0  0  0  0  0  0  0
    5.3490    7.6120   -1.3710 N   0  0  0  0  0  0  0  0  0  0  0  0
    6.5780    6.6980    0.7470 B   0  0  0  0  0  0  0  0  0  0  0  0
    6.4640    8.4040   -1.2150 C   0  0  0  0  0  0  0  0  0  0  0  0
    7.2320    8.0470   -0.1340 C   0  0  0  0  0  0  0  0  0  0  0  0
    8.4240    8.7610    0.2300 C   0  0  0  0  0  0  0  0  0  0  0  0
    9.9030    8.0380    0.8970 C   0  0  0  0  0  0  0  0  0  0  0  0
    8.5980   10.1170    0.1000 C   0  0  0  0  0  0  0  0  0  0  0  0
   10.7200    9.6150    0.9830 C   0  0  0  0  0  0  0  0  0  0  0  0
    7.4800   11.3520   -0.4060 S   0  0  0  0  0  0  0  0  0  0  0  0
    9.8410   10.5530    0.5250 C   0  0  0  0  0  0  0  0  0  0  0  0
    8.7860   12.5340   -0.0740 C   0  0  0  0  0  0  0  0  0  0  0  0
    9.9560   11.9630    0.4150 C   0  0  0  0  0  0  0  0  0  0  0  0
   -1.3790   -0.2070    1.1350 H   0  0  0  0  0  0  0  0  0  0  0  0
   -0.3800   -0.0390   -1.1400 H   0  0  0  0  0  0  0  0  0  0  0  0
   -0.7140    1.4100    2.9080 H   0  0  0  0  0  0  0  0  0  0  0  0
    1.2780    1.7330   -1.6410 H   0  0  0  0  0  0  0  0  0  0  0  0
    0.9340    3.1920    2.4100 H   0  0  0  0  0  0  0  0  0  0  0  0
    3.3660    3.3720    1.8990 H   0  0  0  0  0  0  0  0  0  0  0  0
    6.6540    9.1940   -1.9290 H   0  0  0  0  0  0  0  0  0  0  0  0
   11.7260    9.7230    1.3640 H   0  0  0  0  0  0  0  0  0  0  0  0
    8.5890   13.5820   -0.2560 H   0  0  0  0  0  0  0  0  0  0  0  0
   10.8470   12.5160    0.6900 H   0  0  0  0  0  0  0  0  0  0  0  0
  1 29  1  0  0  0  0
  1  3  2  0  0  0  0
  2  1  1  0  0  0  0
  3 31  1  0  0  0  0
  4  2  2  0  0  0  0
  4  6  1  0  0  0  0
  5  3  1  0  0  0  0
  5 33  1  0  0  0  0
  6  5  2  0  0  0  0
  7  6  1  0  0  0  0
  7  8  2  0  0  0  0
  8 34  1  0  0  0  0
  9  7  1  0  0  0  0
 10  8  1  0  0  0  0
 11  9  2  0  0  0  0
 12  9  1  0  0  0  0
 12 13  1  0  0  0  0
 13 10  2  0  0  0  0
 14 15  1  0  0  0  0
 14 11  1  0  0  0  0
 15 12  2  0  0  0  0
 16 13  1  0  0  0  0
 16 18  1  0  0  0  0
 17 19  1  0  0  0  0
 17 16  2  0  0  0  0
 19 20  1  0  0  0  0
 20 21  1  0  0  0  0
 20 18  2  0  0  0  0
 21 22  1  0  0  0  0
 22 24  2  0  0  0  0
 23 21  2  0  0  0  0
 23 26  1  0  0  0  0
 24 36  1  0  0  0  0
 25 27  2  0  0  0  0
 25 23  1  0  0  0  0
 26 24  1  0  0  0  0
 27 28  1  0  0  0  0
 28 26  2  0  0  0  0
 28 38  1  0  0  0  0
 30  2  1  0  0  0  0
 32  4  1  0  0  0  0
 35 19  1  0  0  0  0
 37 27  1  0  0  0  0
M  END
$$$$
scan_sander_basal_param/min_pdbs/min_pdb_C306_240.pdb
 OpenBabel10021702533D

 38 43  0  0  0  0  0  0  0  0999 V2000
   -0.6400    0.5690    0.9060 C   0  0  0  0  0  0  0  0  0  0  0  0
    0.1210    0.5250   -0.2730 C   0  0  0  0  0  0  0  0  0  0  0  0
   -0.4630    1.6230    1.8160 C   0  0  0  0  0  0  0  0  0  0  0  0
    1.0590    1.5350   -0.5400 C   0  0  0  0  0  0  0  0  0  0  0  0
    0.4760    2.6320    1.5470 C   0  0  0  0  0  0  0  0  0  0  0  0
    1.2500    2.6060    0.3640 C   0  0  0  0  0  0  0  0  0  0  0  0
    2.2520    3.6750    0.0900 C   0  0  0  0  0  0  0  0  0  0  0  0
    3.3230    3.9130    0.9790 C   0  0  0  0  0  0  0  0  0  0  0  0
    2.1920    4.5120   -1.0460 C   0  0  0  0  0  0  0  0  0  0  0  0
    4.2550    4.8690    0.7880 N   0  0  0  0  0  0  0  0  0  0  0  0
    1.2380    4.4280   -1.9940 N   0  0  0  0  0  0  0  0  0  0  0  0
    3.1470    5.5000   -1.2500 C   0  0  0  0  0  0  0  0  0  0  0  0
    4.1880    5.6710   -0.3030 C   0  0  0  0  0  0  0  0  0  0  0  0
    1.6160    5.5970   -3.0740 S   0  0  0  0  0  0  0  0  0  0  0  0
    2.9620    6.2150   -2.3820 N   0  0  0  0  0  0  0  0  0  0  0  0
    5.2600    6.6800   -0.4260 C   0  0  0  0  0  0  0  0  0  0  0  0
    5.3060    7.6400   -1.3440 N   0  0  0  0  0  0  0  0  0  0  0  0
    6.6120    6.6690    0.7010 B   0  0  0  0  0  0  0  0  0  0  0  0
    6.4250    8.4300   -1.2060 C   0  0  0  0  0  0  0  0  0  0  0  0
    7.2310    8.0440   -0.1640 C   0  0  0  0  0  0  0  0  0  0  0  0
    8.4340    8.7530    0.1780 C   0  0  0  0  0  0  0  0  0  0  0  0
    9.9370    8.0170    0.7720 C   0  0  0  0  0  0  0  0  0  0  0  0
    8.5990   10.1120    0.0810 C   0  0  0  0  0  0  0  0  0  0  0  0
   10.7520    9.5930    0.8750 C   0  0  0  0  0  0  0  0  0  0  0  0
    7.4610   11.3570   -0.3500 S   0  0  0  0  0  0  0  0  0  0  0  0
    9.8550   10.5410    0.4740 C   0  0  0  0  0  0  0  0  0  0  0  0
    8.7730   12.5330   -0.0290 C   0  0  0  0  0  0  0  0  0  0  0  0
    9.9620   11.9540    0.4020 C   0  0  0  0  0  0  0  0  0  0  0  0
   -1.3670   -0.2110    1.1130 H   0  0  0  0  0  0  0  0  0  0  0  0
   -0.0170   -0.2890   -0.9790 H   0  0  0  0  0  0  0  0  0  0  0  0
   -1.0530    1.6580    2.7280 H   0  0  0  0  0  0  0  0  0  0  0  0
    1.6430    1.4980   -1.4550 H   0  0  0  0  0  0  0  0  0  0  0  0
    0.6040    3.4470    2.2540 H   0  0  0  0  0  0  0  0  0  0  0  0
    3.4360    3.3070    1.8780 H   0  0  0  0  0  0  0  0  0  0  0  0
    6.5870    9.2400   -1.9040 H   0  0  0  0  0  0  0  0  0  0  0  0
   11.7700    9.6940    1.2240 H   0  0  0  0  0  0  0  0  0  0  0  0
    8.5670   13.5860   -0.1730 H   0  0  0  0  0  0  0  0  0  0  0  0
   10.8600   12.5020    0.6620 H   0  0  0  0  0  0  0  0  0  0  0  0
  1 29  1  0  0  0  0
  1  3  2  0  0  0  0
  2  1  1  0  0  0  0
  3 31  1  0  0  0  0
  4  2  2  0  0  0  0
  4  6  1  0  0  0  0
  5  3  1  0  0  0  0
  5 33  1  0  0  0  0
  6  5  2  0  0  0  0
  7  6  1  0  0  0  0
  7  8  2  0  0  0  0
  8 34  1  0  0  0  0
  9  7  1  0  0  0  0
 10  8  1  0  0  0  0
 11  9  2  0  0  0  0
 12  9  1  0  0  0  0
 12 13  1  0  0  0  0
 13 10  2  0  0  0  0
 14 15  1  0  0  0  0
 14 11  1  0  0  0  0
 15 12  2  0  0  0  0
 16 13  1  0  0  0  0
 16 18  1  0  0  0  0
 17 19  1  0  0  0  0
 17 16  2  0  0  0  0
 19 20  1  0  0  0  0
 20 21  1  0  0  0  0
 20 18  2  0  0  0  0
 21 22  1  0  0  0  0
 22 24  2  0  0  0  0
 23 21  2  0  0  0  0
 23 26  1  0  0  0  0
 24 36  1  0  0  0  0
 25 27  2  0  0  0  0
 25 23  1  0  0  0  0
 26 24  1  0  0  0  0
 27 28  1  0  0  0  0
 28 26  2  0  0  0  0
 28 38  1  0  0  0  0
 30  2  1  0  0  0  0
 32  4  1  0  0  0  0
 35 19  1  0  0  0  0
 37 27  1  0  0  0  0
M  END
$$$$
scan_sander_basal_param/min_pdbs/min_pdb_C306_255.pdb
 OpenBabel10021702533D

 38 43  0  0  0  0  0  0  0  0999 V2000
   -0.5990    0.5310    0.8890 C   0  0  0  0  0  0  0  0  0  0  0  0
    0.3370    0.3860   -0.1470 C   0  0  0  0  0  0  0  0  0  0  0  0
   -0.6090    1.6980    1.6690 C   0  0  0  0  0  0  0  0  0  0  0  0
    1.2650    1.4090   -0.4010 C   0  0  0  0  0  0  0  0  0  0  0  0
    0.3200    2.7200    1.4130 C   0  0  0  0  0  0  0  0  0  0  0  0
    1.2700    2.5910    0.3740 C   0  0  0  0  0  0  0  0  0  0  0  0
    2.2570    3.6720    0.1090 C   0  0  0  0  0  0  0  0  0  0  0  0
    3.3640    3.8760    0.9610 C   0  0  0  0  0  0  0  0  0  0  0  0
    2.1480    4.5500   -0.9890 C   0  0  0  0  0  0  0  0  0  0  0  0
    4.2850    4.8420    0.7690 N   0  0  0  0  0  0  0  0  0  0  0  0
    1.1560    4.4940   -1.8990 N   0  0  0  0  0  0  0  0  0  0  0  0
    3.0910    5.5480   -1.1950 C   0  0  0  0  0  0  0  0  0  0  0  0
    4.1720    5.6860   -0.2870 C   0  0  0  0  0  0  0  0  0  0  0  0
    1.4860    5.7020   -2.9510 S   0  0  0  0  0  0  0  0  0  0  0  0
    2.8580    6.3030   -2.2920 N   0  0  0  0  0  0  0  0  0  0  0  0
    5.2360    6.7020   -0.4170 C   0  0  0  0  0  0  0  0  0  0  0  0
    5.2410    7.6950   -1.2990 N   0  0  0  0  0  0  0  0  0  0  0  0
    6.6340    6.6510    0.6500 B   0  0  0  0  0  0  0  0  0  0  0  0
    6.3650    8.4810   -1.1810 C   0  0  0  0  0  0  0  0  0  0  0  0
    7.2170    8.0570   -0.1900 C   0  0  0  0  0  0  0  0  0  0  0  0
    8.4350    8.7520    0.1230 C   0  0  0  0  0  0  0  0  0  0  0  0
    9.9620    7.9940    0.6220 C   0  0  0  0  0  0  0  0  0  0  0  0
    8.5990   10.1140    0.0690 C   0  0  0  0  0  0  0  0  0  0  0  0
   10.7850    9.5650    0.7450 C   0  0  0  0  0  0  0  0  0  0  0  0
    7.4460   11.3740   -0.2650 S   0  0  0  0  0  0  0  0  0  0  0  0
    9.8720   10.5270    0.4200 C   0  0  0  0  0  0  0  0  0  0  0  0
    8.7740   12.5380    0.0380 C   0  0  0  0  0  0  0  0  0  0  0  0
    9.9790   11.9420    0.3930 C   0  0  0  0  0  0  0  0  0  0  0  0
   -1.3180   -0.2600    1.0850 H   0  0  0  0  0  0  0  0  0  0  0  0
    0.3430   -0.5160   -0.7530 H   0  0  0  0  0  0  0  0  0  0  0  0
   -1.3350    1.8110    2.4690 H   0  0  0  0  0  0  0  0  0  0  0  0
    1.9850    1.2950   -1.2060 H   0  0  0  0  0  0  0  0  0  0  0  0
    0.3070    3.6220    2.0170 H   0  0  0  0  0  0  0  0  0  0  0  0
    3.5140    3.2350    1.8300 H   0  0  0  0  0  0  0  0  0  0  0  0
    6.4980    9.3170   -1.8550 H   0  0  0  0  0  0  0  0  0  0  0  0
   11.8180    9.6520    1.0500 H   0  0  0  0  0  0  0  0  0  0  0  0
    8.5650   13.5950   -0.0590 H   0  0  0  0  0  0  0  0  0  0  0  0
   10.8900   12.4800    0.6310 H   0  0  0  0  0  0  0  0  0  0  0  0
  1 29  1  0  0  0  0
  1  3  2  0  0  0  0
  2  1  1  0  0  0  0
  3 31  1  0  0  0  0
  4  2  2  0  0  0  0
  4  6  1  0  0  0  0
  5  3  1  0  0  0  0
  5 33  1  0  0  0  0
  6  5  2  0  0  0  0
  7  6  1  0  0  0  0
  7  8  2  0  0  0  0
  8 34  1  0  0  0  0
  9  7  1  0  0  0  0
 10  8  1  0  0  0  0
 11  9  2  0  0  0  0
 12  9  1  0  0  0  0
 12 13  1  0  0  0  0
 13 10  2  0  0  0  0
 14 15  1  0  0  0  0
 14 11  1  0  0  0  0
 15 12  2  0  0  0  0
 16 13  1  0  0  0  0
 16 18  1  0  0  0  0
 17 19  1  0  0  0  0
 17 16  2  0  0  0  0
 19 20  1  0  0  0  0
 20 21  1  0  0  0  0
 20 18  2  0  0  0  0
 21 22  1  0  0  0  0
 22 24  2  0  0  0  0
 23 21  2  0  0  0  0
 23 26  1  0  0  0  0
 24 36  1  0  0  0  0
 25 27  2  0  0  0  0
 25 23  1  0  0  0  0
 26 24  1  0  0  0  0
 27 28  1  0  0  0  0
 28 26  2  0  0  0  0
 28 38  1  0  0  0  0
 30  2  1  0  0  0  0
 32  4  1  0  0  0  0
 35 19  1  0  0  0  0
 37 27  1  0  0  0  0
M  END
$$$$
scan_sander_basal_param/min_pdbs/min_pdb_C306_270.pdb
 OpenBabel10021702533D

 38 43  0  0  0  0  0  0  0  0999 V2000
   -0.5710    0.5080    0.9040 C   0  0  0  0  0  0  0  0  0  0  0  0
    0.5200    0.2790    0.0500 C   0  0  0  0  0  0  0  0  0  0  0  0
   -0.7430    1.7660    1.5020 C   0  0  0  0  0  0  0  0  0  0  0  0
    1.4400    1.3090   -0.2040 C   0  0  0  0  0  0  0  0  0  0  0  0
    0.1790    2.7950    1.2470 C   0  0  0  0  0  0  0  0  0  0  0  0
    1.2830    2.5820    0.3910 C   0  0  0  0  0  0  0  0  0  0  0  0
    2.2600    3.6700    0.1240 C   0  0  0  0  0  0  0  0  0  0  0  0
    3.3990    3.8450    0.9390 C   0  0  0  0  0  0  0  0  0  0  0  0
    2.1090    4.5830   -0.9390 C   0  0  0  0  0  0  0  0  0  0  0  0
    4.3140    4.8170    0.7410 N   0  0  0  0  0  0  0  0  0  0  0  0
    1.0820    4.5550   -1.8110 N   0  0  0  0  0  0  0  0  0  0  0  0
    3.0450    5.5870   -1.1510 C   0  0  0  0  0  0  0  0  0  0  0  0
    4.1610    5.6950   -0.2820 C   0  0  0  0  0  0  0  0  0  0  0  0
    1.3730    5.7960   -2.8370 S   0  0  0  0  0  0  0  0  0  0  0  0
    2.7700    6.3760   -2.2130 N   0  0  0  0  0  0  0  0  0  0  0  0
    5.2200    6.7140   -0.4200 C   0  0  0  0  0  0  0  0  0  0  0  0
    5.1920    7.7360   -1.2690 N   0  0  0  0  0  0  0  0  0  0  0  0
    6.6600    6.6290    0.5890 B   0  0  0  0  0  0  0  0  0  0  0  0
    6.3210    8.5180   -1.1690 C   0  0  0  0  0  0  0  0  0  0  0  0
    7.2100    8.0620   -0.2280 C   0  0  0  0  0  0  0  0  0  0  0  0
    8.4400    8.7470    0.0610 C   0  0  0  0  0  0  0  0  0  0  0  0
    9.9850    7.9740    0.4750 C   0  0  0  0  0  0  0  0  0  0  0  0
    8.6030   10.1100    0.0450 C   0  0  0  0  0  0  0  0  0  0  0  0
   10.8130    9.5400    0.6170 C   0  0  0  0  0  0  0  0  0  0  0  0
    7.4380   11.3800   -0.2020 S   0  0  0  0  0  0  0  0  0  0  0  0
    9.8890   10.5120    0.3600 C   0  0  0  0  0  0  0  0  0  0  0  0
    8.7780   12.5330    0.0870 C   0  0  0  0  0  0  0  0  0  0  0  0
    9.9960   11.9270    0.3760 C   0  0  0  0  0  0  0  0  0  0  0  0
   -1.2840   -0.2880    1.1000 H   0  0  0  0  0  0  0  0  0  0  0  0
    0.6510   -0.6950   -0.4150 H   0  0  0  0  0  0  0  0  0  0  0  0
   -1.5890    1.9450    2.1600 H   0  0  0  0  0  0  0  0  0  0  0  0
    2.2800    1.1290   -0.8680 H   0  0  0  0  0  0  0  0  0  0  0  0
    0.0400    3.7690    1.7080 H   0  0  0  0  0  0  0  0  0  0  0  0
    3.5820    3.1770    1.7800 H   0  0  0  0  0  0  0  0  0  0  0  0
    6.4280    9.3750   -1.8200 H   0  0  0  0  0  0  0  0  0  0  0  0
   11.8570    9.6180    0.8850 H   0  0  0  0  0  0  0  0  0  0  0  0
    8.5660   13.5930    0.0330 H   0  0  0  0  0  0  0  0  0  0  0  0
   10.9150   12.4570    0.5960 H   0  0  0  0  0  0  0  0  0  0  0  0
  1 29  1  0  0  0  0
  1  3  2  0  0  0  0
  2  1  1  0  0  0  0
  3 31  1  0  0  0  0
  4  2  2  0  0  0  0
  4  6  1  0  0  0  0
  5  3  1  0  0  0  0
  5 33  1  0  0  0  0
  6  5  2  0  0  0  0
  7  6  1  0  0  0  0
  7  8  2  0  0  0  0
  8 34  1  0  0  0  0
  9  7  1  0  0  0  0
 10  8  1  0  0  0  0
 11  9  2  0  0  0  0
 12  9  1  0  0  0  0
 12 13  1  0  0  0  0
 13 10  2  0  0  0  0
 14 15  1  0  0  0  0
 14 11  1  0  0  0  0
 15 12  2  0  0  0  0
 16 13  1  0  0  0  0
 16 18  1  0  0  0  0
 17 19  1  0  0  0  0
 17 16  2  0  0  0  0
 19 20  1  0  0  0  0
 20 21  1  0  0  0  0
 20 18  2  0  0  0  0
 21 22  2  0  0  0  0
 22 24  1  0  0  0  0
 23 21  1  0  0  0  0
 23 26  1  0  0  0  0
 24 36  1  0  0  0  0
 25 23  2  0  0  0  0
 25 27  1  0  0  0  0
 26 28  1  0  0  0  0
 26 24  2  0  0  0  0
 27 28  2  0  0  0  0
 28 38  1  0  0  0  0
 30  2  1  0  0  0  0
 32  4  1  0  0  0  0
 35 19  1  0  0  0  0
 37 27  1  0  0  0  0
M  END
$$$$
scan_sander_basal_param/min_pdbs/min_pdb_C306_285.pdb
 OpenBabel10021702533D

 38 43  0  0  0  0  0  0  0  0999 V2000
   -0.5380    0.4790    0.9170 C   0  0  0  0  0  0  0  0  0  0  0  0
    0.6770    0.2030    0.2690 C   0  0  0  0  0  0  0  0  0  0  0  0
   -0.8440    1.7930    1.3060 C   0  0  0  0  0  0  0  0  0  0  0  0
    1.5860    1.2430    0.0120 C   0  0  0  0  0  0  0  0  0  0  0  0
    0.0660    2.8300    1.0490 C   0  0  0  0  0  0  0  0  0  0  0  0
    1.2940    2.5710    0.3980 C   0  0  0  0  0  0  0  0  0  0  0  0
    2.2620    3.6690    0.1300 C   0  0  0  0  0  0  0  0  0  0  0  0
    3.4360    3.8130    0.9000 C   0  0  0  0  0  0  0  0  0  0  0  0
    2.0680    4.6220   -0.8920 C   0  0  0  0  0  0  0  0  0  0  0  0
    4.3440    4.7900    0.7000 N   0  0  0  0  0  0  0  0  0  0  0  0
    1.0050    4.6280   -1.7200 N   0  0  0  0  0  0  0  0  0  0  0  0
    2.9970    5.6320   -1.1050 C   0  0  0  0  0  0  0  0  0  0  0  0
    4.1490    5.7060   -0.2820 C   0  0  0  0  0  0  0  0  0  0  0  0
    1.2560    5.9050   -2.7110 S   0  0  0  0  0  0  0  0  0  0  0  0
    2.6790    6.4610   -2.1250 N   0  0  0  0  0  0  0  0  0  0  0  0
    5.2040    6.7290   -0.4260 C   0  0  0  0  0  0  0  0  0  0  0  0
    5.1420    7.7820   -1.2340 N   0  0  0  0  0  0  0  0  0  0  0  0
    6.6850    6.6050    0.5170 B   0  0  0  0  0  0  0  0  0  0  0  0
    6.2750    8.5600   -1.1520 C   0  0  0  0  0  0  0  0  0  0  0  0
    7.2020    8.0690   -0.2660 C   0  0  0  0  0  0  0  0  0  0  0  0
    8.4440    8.7430   -0.0020 C   0  0  0  0  0  0  0  0  0  0  0  0
   10.0040    7.9550    0.3170 C   0  0  0  0  0  0  0  0  0  0  0  0
    8.6070   10.1060    0.0270 C   0  0  0  0  0  0  0  0  0  0  0  0
   10.8380    9.5160    0.4850 C   0  0  0  0  0  0  0  0  0  0  0  0
    7.4330   11.3830   -0.1210 S   0  0  0  0  0  0  0  0  0  0  0  0
    9.9050   10.4970    0.3040 C   0  0  0  0  0  0  0  0  0  0  0  0
    8.7850   12.5260    0.1570 C   0  0  0  0  0  0  0  0  0  0  0  0
   10.0130   11.9090    0.3710 C   0  0  0  0  0  0  0  0  0  0  0  0
   -1.2430   -0.3240    1.1140 H   0  0  0  0  0  0  0  0  0  0  0  0
    0.9120   -0.8130   -0.0350 H   0  0  0  0  0  0  0  0  0  0  0  0
   -1.7860    2.0070    1.8050 H   0  0  0  0  0  0  0  0  0  0  0  0
    2.5230    1.0250   -0.4920 H   0  0  0  0  0  0  0  0  0  0  0  0
   -0.1760    3.8460    1.3470 H   0  0  0  0  0  0  0  0  0  0  0  0
    3.6520    3.1130    1.7080 H   0  0  0  0  0  0  0  0  0  0  0  0
    6.3550    9.4420   -1.7730 H   0  0  0  0  0  0  0  0  0  0  0  0
   11.8920    9.5840    0.7130 H   0  0  0  0  0  0  0  0  0  0  0  0
    8.5710   13.5870    0.1530 H   0  0  0  0  0  0  0  0  0  0  0  0
   10.9410   12.4320    0.5740 H   0  0  0  0  0  0  0  0  0  0  0  0
  1 29  1  0  0  0  0
  1  3  2  0  0  0  0
  2  1  1  0  0  0  0
  3 31  1  0  0  0  0
  4  2  2  0  0  0  0
  4  6  1  0  0  0  0
  5  3  1  0  0  0  0
  5 33  1  0  0  0  0
  6  5  2  0  0  0  0
  7  6  1  0  0  0  0
  7  8  2  0  0  0  0
  8 34  1  0  0  0  0
  9  7  1  0  0  0  0
 10  8  1  0  0  0  0
 11  9  2  0  0  0  0
 12  9  1  0  0  0  0
 12 13  1  0  0  0  0
 13 10  2  0  0  0  0
 14 15  1  0  0  0  0
 14 11  1  0  0  0  0
 15 12  2  0  0  0  0
 16 13  1  0  0  0  0
 16 18  1  0  0  0  0
 17 19  1  0  0  0  0
 17 16  2  0  0  0  0
 19 20  1  0  0  0  0
 20 21  1  0  0  0  0
 20 18  2  0  0  0  0
 21 23  1  0  0  0  0
 21 22  2  0  0  0  0
 22 24  1  0  0  0  0
 23 26  1  0  0  0  0
 24 36  1  0  0  0  0
 25 23  2  0  0  0  0
 25 27  1  0  0  0  0
 26 28  1  0  0  0  0
 26 24  2  0  0  0  0
 27 28  2  0  0  0  0
 28 38  1  0  0  0  0
 30  2  1  0  0  0  0
 32  4  1  0  0  0  0
 35 19  1  0  0  0  0
 37 27  1  0  0  0  0
M  END
$$$$
scan_sander_basal_param/min_pdbs/min_pdb_C306_300.pdb
 OpenBabel10021702533D

 38 43  0  0  0  0  0  0  0  0999 V2000
   -0.5000    0.4390    0.9230 C   0  0  0  0  0  0  0  0  0  0  0  0
    0.8080    0.1610    0.4970 C   0  0  0  0  0  0  0  0  0  0  0  0
   -0.9160    1.7700    1.0890 C   0  0  0  0  0  0  0  0  0  0  0  0
    1.7000    1.2150    0.2380 C   0  0  0  0  0  0  0  0  0  0  0  0
   -0.0220    2.8210    0.8310 C   0  0  0  0  0  0  0  0  0  0  0  0
    1.3000    2.5620    0.4010 C   0  0  0  0  0  0  0  0  0  0  0  0
    2.2550    3.6730    0.1300 C   0  0  0  0  0  0  0  0  0  0  0  0
    3.4630    3.7850    0.8530 C   0  0  0  0  0  0  0  0  0  0  0  0
    2.0190    4.6710   -0.8400 C   0  0  0  0  0  0  0  0  0  0  0  0
    4.3640    4.7700    0.6550 N   0  0  0  0  0  0  0  0  0  0  0  0
    0.9230    4.7150   -1.6240 N   0  0  0  0  0  0  0  0  0  0  0  0
    2.9400    5.6890   -1.0510 C   0  0  0  0  0  0  0  0  0  0  0  0
    4.1280    5.7270   -0.2770 C   0  0  0  0  0  0  0  0  0  0  0  0
    1.1360    6.0320   -2.5700 S   0  0  0  0  0  0  0  0  0  0  0  0
    2.5830    6.5610   -2.0200 N   0  0  0  0  0  0  0  0  0  0  0  0
    5.1790    6.7540   -0.4240 C   0  0  0  0  0  0  0  0  0  0  0  0
    5.0850    7.8410   -1.1830 N   0  0  0  0  0  0  0  0  0  0  0  0
    6.7000    6.5870    0.4460 B   0  0  0  0  0  0  0  0  0  0  0  0
    6.2240    8.6110   -1.1190 C   0  0  0  0  0  0  0  0  0  0  0  0
    7.1880    8.0810   -0.2980 C   0  0  0  0  0  0  0  0  0  0  0  0
    8.4440    8.7390   -0.0650 C   0  0  0  0  0  0  0  0  0  0  0  0
   10.0130    7.9330    0.1490 C   0  0  0  0  0  0  0  0  0  0  0  0
    8.6160   10.0990    0.0130 C   0  0  0  0  0  0  0  0  0  0  0  0
   10.8630    9.4820    0.3420 C   0  0  0  0  0  0  0  0  0  0  0  0
    7.4450   11.3860   -0.0290 S   0  0  0  0  0  0  0  0  0  0  0  0
    9.9280   10.4730    0.2450 C   0  0  0  0  0  0  0  0  0  0  0  0
    8.8140   12.5110    0.2320 C   0  0  0  0  0  0  0  0  0  0  0  0
   10.0470   11.8820    0.3640 C   0  0  0  0  0  0  0  0  0  0  0  0
   -1.1910   -0.3750    1.1210 H   0  0  0  0  0  0  0  0  0  0  0  0
    1.1300   -0.8680    0.3650 H   0  0  0  0  0  0  0  0  0  0  0  0
   -1.9290    1.9860    1.4160 H   0  0  0  0  0  0  0  0  0  0  0  0
    2.7100    0.9920   -0.0950 H   0  0  0  0  0  0  0  0  0  0  0  0
   -0.3500    3.8490    0.9580 H   0  0  0  0  0  0  0  0  0  0  0  0
    3.7140    3.0540    1.6210 H   0  0  0  0  0  0  0  0  0  0  0  0
    6.2800    9.5180   -1.7060 H   0  0  0  0  0  0  0  0  0  0  0  0
   11.9270    9.5370    0.5230 H   0  0  0  0  0  0  0  0  0  0  0  0
    8.6070   13.5720    0.2820 H   0  0  0  0  0  0  0  0  0  0  0  0
   10.9870   12.3920    0.5440 H   0  0  0  0  0  0  0  0  0  0  0  0
  1  3  1  0  0  0  0
  1 29  1  0  0  0  0
  2  1  2  0  0  0  0
  3 31  1  0  0  0  0
  4  6  2  0  0  0  0
  4  2  1  0  0  0  0
  5 33  1  0  0  0  0
  5  3  2  0  0  0  0
  6  5  1  0  0  0  0
  7  6  1  0  0  0  0
  7  8  2  0  0  0  0
  8 34  1  0  0  0  0
  9  7  1  0  0  0  0
 10  8  1  0  0  0  0
 11  9  2  0  0  0  0
 12  9  1  0  0  0  0
 12 13  1  0  0  0  0
 13 10  2  0  0  0  0
 14 15  1  0  0  0  0
 14 11  1  0  0  0  0
 15 12  2  0  0  0  0
 16 13  1  0  0  0  0
 16 18  1  0  0  0  0
 17 19  1  0  0  0  0
 17 16  2  0  0  0  0
 19 20  1  0  0  0  0
 20 21  1  0  0  0  0
 20 18  2  0  0  0  0
 21 23  2  0  0  0  0
 21 22  1  0  0  0  0
 22 24  2  0  0  0  0
 23 26  1  0  0  0  0
 24 36  1  0  0  0  0
 25 23  1  0  0  0  0
 25 27  2  0  0  0  0
 26 24  1  0  0  0  0
 26 28  2  0  0  0  0
 27 37  1  0  0  0  0
 27 28  1  0  0  0  0
 28 38  1  0  0  0  0
 30  2  1  0  0  0  0
 32  4  1  0  0  0  0
 35 19  1  0  0  0  0
M  END
$$$$
scan_sander_basal_param/min_pdbs/min_pdb_C306_315.pdb
 OpenBabel10021702533D

 38 43  0  0  0  0  0  0  0  0999 V2000
   -0.4650    0.4040    0.9530 C   0  0  0  0  0  0  0  0  0  0  0  0
    0.9010    0.1580    0.7420 C   0  0  0  0  0  0  0  0  0  0  0  0
   -0.9570    1.7160    0.8900 C   0  0  0  0  0  0  0  0  0  0  0  0
    1.7720    1.2250    0.4690 C   0  0  0  0  0  0  0  0  0  0  0  0
   -0.0840    2.7810    0.6160 C   0  0  0  0  0  0  0  0  0  0  0  0
    1.2980    2.5580    0.3980 C   0  0  0  0  0  0  0  0  0  0  0  0
    2.2420    3.6820    0.1130 C   0  0  0  0  0  0  0  0  0  0  0  0
    3.4890    3.7570    0.7730 C   0  0  0  0  0  0  0  0  0  0  0  0
    1.9670    4.7280   -0.7990 C   0  0  0  0  0  0  0  0  0  0  0  0
    4.3860    4.7440    0.5780 N   0  0  0  0  0  0  0  0  0  0  0  0
    0.8440    4.8140   -1.5400 N   0  0  0  0  0  0  0  0  0  0  0  0
    2.8880    5.7490   -1.0080 C   0  0  0  0  0  0  0  0  0  0  0  0
    4.1120    5.7460   -0.2930 C   0  0  0  0  0  0  0  0  0  0  0  0
    1.0250    6.1720   -2.4340 S   0  0  0  0  0  0  0  0  0  0  0  0
    2.4960    6.6660   -1.9220 N   0  0  0  0  0  0  0  0  0  0  0  0
    5.1610    6.7740   -0.4420 C   0  0  0  0  0  0  0  0  0  0  0  0
    5.0380    7.8970   -1.1420 N   0  0  0  0  0  0  0  0  0  0  0  0
    6.7210    6.5590    0.3440 B   0  0  0  0  0  0  0  0  0  0  0  0
    6.1820    8.6600   -1.0940 C   0  0  0  0  0  0  0  0  0  0  0  0
    7.1810    8.0880   -0.3460 C   0  0  0  0  0  0  0  0  0  0  0  0
    8.4490    8.7320   -0.1370 C   0  0  0  0  0  0  0  0  0  0  0  0
   10.0230    7.9140   -0.0360 C   0  0  0  0  0  0  0  0  0  0  0  0
    8.6290   10.0850    0.0020 C   0  0  0  0  0  0  0  0  0  0  0  0
   10.8850    9.4510    0.1980 C   0  0  0  0  0  0  0  0  0  0  0  0
    7.4610   11.3740    0.0790 S   0  0  0  0  0  0  0  0  0  0  0  0
    9.9510   10.4460    0.1940 C   0  0  0  0  0  0  0  0  0  0  0  0
    8.8440   12.4830    0.3360 C   0  0  0  0  0  0  0  0  0  0  0  0
   10.0800   11.8470    0.3790 C   0  0  0  0  0  0  0  0  0  0  0  0
   -1.1400   -0.4210    1.1630 H   0  0  0  0  0  0  0  0  0  0  0  0
    1.2830   -0.8580    0.7880 H   0  0  0  0  0  0  0  0  0  0  0  0
   -2.0140    1.9090    1.0540 H   0  0  0  0  0  0  0  0  0  0  0  0
    2.8250    1.0200    0.3000 H   0  0  0  0  0  0  0  0  0  0  0  0
   -0.4770    3.7930    0.5790 H   0  0  0  0  0  0  0  0  0  0  0  0
    3.7750    2.9940    1.4980 H   0  0  0  0  0  0  0  0  0  0  0  0
    6.2160    9.5950   -1.6380 H   0  0  0  0  0  0  0  0  0  0  0  0
   11.9570    9.4950    0.3330 H   0  0  0  0  0  0  0  0  0  0  0  0
    8.6430   13.5400    0.4490 H   0  0  0  0  0  0  0  0  0  0  0  0
   11.0280   12.3460    0.5430 H   0  0  0  0  0  0  0  0  0  0  0  0
  1 29  1  0  0  0  0
  2 30  1  0  0  0  0
  2  1  2  0  0  0  0
  3  1  1  0  0  0  0
  3 31  1  0  0  0  0
  4  2  1  0  0  0  0
  5  3  2  0  0  0  0
  6  4  2  0  0  0  0
  6  5  1  0  0  0  0
  7  6  1  0  0  0  0
  7  8  2  0  0  0  0
  8 34  1  0  0  0  0
  9  7  1  0  0  0  0
 10  8  1  0  0  0  0
 11  9  2  0  0  0  0
 12  9  1  0  0  0  0
 12 13  1  0  0  0  0
 13 10  2  0  0  0  0
 14 15  1  0  0  0  0
 14 11  1  0  0  0  0
 15 12  2  0  0  0  0
 16 13  1  0  0  0  0
 16 18  1  0  0  0  0
 17 19  1  0  0  0  0
 17 16  2  0  0  0  0
 19 20  1  0  0  0  0
 20 21  1  0  0  0  0
 20 18  2  0  0  0  0
 21 22  2  0  0  0  0
 21 23  1  0  0  0  0
 22 24  1  0  0  0  0
 23 25  2  0  0  0  0
 23 26  1  0  0  0  0
 24 36  1  0  0  0  0
 25 27  1  0  0  0  0
 26 24  2  0  0  0  0
 26 28  1  0  0  0  0
 27 28  2  0  0  0  0
 27 37  1  0  0  0  0
 28 38  1  0  0  0  0
 32  4  1  0  0  0  0
 33  5  1  0  0  0  0
 35 19  1  0  0  0  0
M  END
$$$$
scan_sander_basal_param/min_pdbs/min_pdb_C306_330.pdb
 OpenBabel10021702533D

 38 43  0  0  0  0  0  0  0  0999 V2000
   -0.4150    0.3390    0.9720 C   0  0  0  0  0  0  0  0  0  0  0  0
    0.9770    0.1720    0.9790 C   0  0  0  0  0  0  0  0  0  0  0  0
   -0.9630    1.5960    0.6840 C   0  0  0  0  0  0  0  0  0  0  0  0
    1.8170    1.2620    0.6960 C   0  0  0  0  0  0  0  0  0  0  0  0
   -0.1200    2.6830    0.4000 C   0  0  0  0  0  0  0  0  0  0  0  0
    1.2930    2.5460    0.3930 C   0  0  0  0  0  0  0  0  0  0  0  0
    2.2220    3.6930    0.0960 C   0  0  0  0  0  0  0  0  0  0  0  0
    3.5070    3.7400    0.6910 C   0  0  0  0  0  0  0  0  0  0  0  0
    1.9150    4.7890   -0.7540 C   0  0  0  0  0  0  0  0  0  0  0  0
    4.3980    4.7340    0.5020 N   0  0  0  0  0  0  0  0  0  0  0  0
    0.7730    4.9160   -1.4610 N   0  0  0  0  0  0  0  0  0  0  0  0
    2.8330    5.8160   -0.9580 C   0  0  0  0  0  0  0  0  0  0  0  0
    4.0880    5.7760   -0.3040 C   0  0  0  0  0  0  0  0  0  0  0  0
    0.9240    6.3130   -2.2960 S   0  0  0  0  0  0  0  0  0  0  0  0
    2.4140    6.7750   -1.8130 N   0  0  0  0  0  0  0  0  0  0  0  0
    5.1350    6.8090   -0.4510 C   0  0  0  0  0  0  0  0  0  0  0  0
    4.9860    7.9650   -1.0870 N   0  0  0  0  0  0  0  0  0  0  0  0
    6.7290    6.5500    0.2500 B   0  0  0  0  0  0  0  0  0  0  0  0
    6.1360    8.7210   -1.0560 C   0  0  0  0  0  0  0  0  0  0  0  0
    7.1650    8.1090   -0.3840 C   0  0  0  0  0  0  0  0  0  0  0  0
    8.4450    8.7370   -0.2040 C   0  0  0  0  0  0  0  0  0  0  0  0
   10.0170    7.9100   -0.2170 C   0  0  0  0  0  0  0  0  0  0  0  0
    8.6390   10.0820   -0.0080 C   0  0  0  0  0  0  0  0  0  0  0  0
   10.8990    9.4300    0.0500 C   0  0  0  0  0  0  0  0  0  0  0  0
    7.4840   11.3690    0.1880 S   0  0  0  0  0  0  0  0  0  0  0  0
    9.9710   10.4270    0.1390 C   0  0  0  0  0  0  0  0  0  0  0  0
    8.8850   12.4590    0.4320 C   0  0  0  0  0  0  0  0  0  0  0  0
   10.1180   11.8170    0.3860 C   0  0  0  0  0  0  0  0  0  0  0  0
   -1.0660   -0.5020    1.1910 H   0  0  0  0  0  0  0  0  0  0  0  0
    1.4050   -0.8020    1.1990 H   0  0  0  0  0  0  0  0  0  0  0  0
   -2.0410    1.7320    0.6860 H   0  0  0  0  0  0  0  0  0  0  0  0
    2.8890    1.0960    0.6880 H   0  0  0  0  0  0  0  0  0  0  0  0
   -0.5760    3.6480    0.2120 H   0  0  0  0  0  0  0  0  0  0  0  0
    3.8310    2.9580    1.3760 H   0  0  0  0  0  0  0  0  0  0  0  0
    6.1490    9.6820   -1.5530 H   0  0  0  0  0  0  0  0  0  0  0  0
   11.9760    9.4630    0.1370 H   0  0  0  0  0  0  0  0  0  0  0  0
    8.6960   13.5100    0.6070 H   0  0  0  0  0  0  0  0  0  0  0  0
   11.0760   12.3030    0.5290 H   0  0  0  0  0  0  0  0  0  0  0  0
  1  2  1  0  0  0  0
  1 29  1  0  0  0  0
  2 30  1  0  0  0  0
  3 31  1  0  0  0  0
  3  1  2  0  0  0  0
  4  2  2  0  0  0  0
  5  3  1  0  0  0  0
  6  5  2  0  0  0  0
  6  4  1  0  0  0  0
  7  6  1  0  0  0  0
  7  8  2  0  0  0  0
  8 34  1  0  0  0  0
  9  7  1  0  0  0  0
 10  8  1  0  0  0  0
 11  9  2  0  0  0  0
 12  9  1  0  0  0  0
 12 13  1  0  0  0  0
 13 10  2  0  0  0  0
 14 15  1  0  0  0  0
 14 11  1  0  0  0  0
 15 12  2  0  0  0  0
 16 13  1  0  0  0  0
 16 18  1  0  0  0  0
 17 19  1  0  0  0  0
 17 16  2  0  0  0  0
 19 20  1  0  0  0  0
 20 21  1  0  0  0  0
 20 18  2  0  0  0  0
 21 23  1  0  0  0  0
 22 21  2  0  0  0  0
 22 24  1  0  0  0  0
 23 26  1  0  0  0  0
 23 25  2  0  0  0  0
 24 36  1  0  0  0  0
 24 26  2  0  0  0  0
 25 27  1  0  0  0  0
 26 28  1  0  0  0  0
 27 37  1  0  0  0  0
 28 27  2  0  0  0  0
 28 38  1  0  0  0  0
 32  4  1  0  0  0  0
 33  5  1  0  0  0  0
 35 19  1  0  0  0  0
M  END
$$$$
scan_sander_basal_param/min_pdbs/min_pdb_C306_345.pdb
 OpenBabel10021702533D

 38 43  0  0  0  0  0  0  0  0999 V2000
   -0.3930    0.2820    0.9650 C   0  0  0  0  0  0  0  0  0  0  0  0
    0.9880    0.2120    1.1800 C   0  0  0  0  0  0  0  0  0  0  0  0
   -0.9510    1.4630    0.4650 C   0  0  0  0  0  0  0  0  0  0  0  0
    1.8030    1.3190    0.8950 C   0  0  0  0  0  0  0  0  0  0  0  0
   -0.1320    2.5670    0.1790 C   0  0  0  0  0  0  0  0  0  0  0  0
    1.2780    2.5380    0.3790 C   0  0  0  0  0  0  0  0  0  0  0  0
    2.1970    3.7120    0.0830 C   0  0  0  0  0  0  0  0  0  0  0  0
    3.5190    3.7330    0.6030 C   0  0  0  0  0  0  0  0  0  0  0  0
    1.8630    4.8610   -0.6940 C   0  0  0  0  0  0  0  0  0  0  0  0
    4.4060    4.7300    0.4210 N   0  0  0  0  0  0  0  0  0  0  0  0
    0.6960    5.0480   -1.3440 N   0  0  0  0  0  0  0  0  0  0  0  0
    2.7800    5.8930   -0.8910 C   0  0  0  0  0  0  0  0  0  0  0  0
    4.0670    5.8140   -0.3090 C   0  0  0  0  0  0  0  0  0  0  0  0
    0.8200    6.4870   -2.1080 S   0  0  0  0  0  0  0  0  0  0  0  0
    2.3350    6.9030   -1.6720 N   0  0  0  0  0  0  0  0  0  0  0  0
    5.1140    6.8460   -0.4540 C   0  0  0  0  0  0  0  0  0  0  0  0
    4.9450    8.0370   -1.0180 N   0  0  0  0  0  0  0  0  0  0  0  0
    6.7390    6.5380    0.1490 B   0  0  0  0  0  0  0  0  0  0  0  0
    6.1020    8.7820   -1.0040 C   0  0  0  0  0  0  0  0  0  0  0  0
    7.1580    8.1260   -0.4200 C   0  0  0  0  0  0  0  0  0  0  0  0
    8.4510    8.7350   -0.2710 C   0  0  0  0  0  0  0  0  0  0  0  0
   10.0130    7.8990   -0.4080 C   0  0  0  0  0  0  0  0  0  0  0  0
    8.6680   10.0650   -0.0110 C   0  0  0  0  0  0  0  0  0  0  0  0
   10.9210    9.3960   -0.1020 C   0  0  0  0  0  0  0  0  0  0  0  0
    7.5360   11.3480    0.3130 S   0  0  0  0  0  0  0  0  0  0  0  0
   10.0080   10.3940    0.0870 C   0  0  0  0  0  0  0  0  0  0  0  0
    8.9580   12.4130    0.5470 C   0  0  0  0  0  0  0  0  0  0  0  0
   10.1800   11.7660    0.4030 C   0  0  0  0  0  0  0  0  0  0  0  0
   -1.0260   -0.5730    1.1860 H   0  0  0  0  0  0  0  0  0  0  0  0
    1.4300   -0.7040    1.5640 H   0  0  0  0  0  0  0  0  0  0  0  0
   -2.0240    1.5290    0.3050 H   0  0  0  0  0  0  0  0  0  0  0  0
    2.8670    1.1950    1.0530 H   0  0  0  0  0  0  0  0  0  0  0  0
   -0.6310    3.4620   -0.1650 H   0  0  0  0  0  0  0  0  0  0  0  0
    3.8910    2.9330    1.2380 H   0  0  0  0  0  0  0  0  0  0  0  0
    6.1000    9.7680   -1.4490 H   0  0  0  0  0  0  0  0  0  0  0  0
   12.0010    9.4180   -0.0680 H   0  0  0  0  0  0  0  0  0  0  0  0
    8.7870   13.4540    0.7880 H   0  0  0  0  0  0  0  0  0  0  0  0
   11.1480   12.2380    0.5250 H   0  0  0  0  0  0  0  0  0  0  0  0
  1  2  1  0  0  0  0
  1 29  1  0  0  0  0
  2 30  1  0  0  0  0
  3  1  2  0  0  0  0
  4 32  1  0  0  0  0
  4  2  2  0  0  0  0
  5  6  2  0  0  0  0
  5  3  1  0  0  0  0
  6  4  1  0  0  0  0
  7  6  1  0  0  0  0
  7  8  2  0  0  0  0
  8 34  1  0  0  0  0
  9  7  1  0  0  0  0
 10  8  1  0  0  0  0
 11  9  2  0  0  0  0
 12  9  1  0  0  0  0
 12 13  1  0  0  0  0
 13 10  2  0  0  0  0
 14 15  1  0  0  0  0
 14 11  1  0  0  0  0
 15 12  2  0  0  0  0
 16 13  1  0  0  0  0
 16 18  1  0  0  0  0
 17 19  1  0  0  0  0
 17 16  2  0  0  0  0
 19 20  1  0  0  0  0
 20 21  1  0  0  0  0
 20 18  2  0  0  0  0
 21 23  1  0  0  0  0
 22 21  2  0  0  0  0
 22 24  1  0  0  0  0
 23 26  1  0  0  0  0
 23 25  2  0  0  0  0
 24 36  1  0  0  0  0
 24 26  2  0  0  0  0
 25 27  1  0  0  0  0
 26 28  1  0  0  0  0
 27 37  1  0  0  0  0
 28 38  1  0  0  0  0
 28 27  2  0  0  0  0
 31  3  1  0  0  0  0
 33  5  1  0  0  0  0
 35 19  1  0  0  0  0
M  END
$$$$
scan_sander_basal_param/min_pdbs/min_pdb_C306_360.pdb
 OpenBabel10021702533D

 38 43  0  0  0  0  0  0  0  0999 V2000
   -0.3410    0.1780    0.8210 C   0  0  0  0  0  0  0  0  0  0  0  0
    0.9670    0.2430    1.3100 C   0  0  0  0  0  0  0  0  0  0  0  0
   -0.8590    1.2640    0.1100 C   0  0  0  0  0  0  0  0  0  0  0  0
    1.7500    1.3870    1.0850 C   0  0  0  0  0  0  0  0  0  0  0  0
   -0.0730    2.4060   -0.1110 C   0  0  0  0  0  0  0  0  0  0  0  0
    1.2670    2.5210    0.3650 C   0  0  0  0  0  0  0  0  0  0  0  0
    2.1590    3.7400    0.1350 C   0  0  0  0  0  0  0  0  0  0  0  0
    3.4910    3.7610    0.6410 C   0  0  0  0  0  0  0  0  0  0  0  0
    1.8040    4.9300   -0.5740 C   0  0  0  0  0  0  0  0  0  0  0  0
    4.3690    4.7690    0.4820 N   0  0  0  0  0  0  0  0  0  0  0  0
    0.6080    5.1730   -1.1490 N   0  0  0  0  0  0  0  0  0  0  0  0
    2.7110    5.9790   -0.7380 C   0  0  0  0  0  0  0  0  0  0  0  0
    4.0130    5.8790   -0.1980 C   0  0  0  0  0  0  0  0  0  0  0  0
    0.7060    6.6510   -1.8350 S   0  0  0  0  0  0  0  0  0  0  0  0
    2.2400    7.0340   -1.4410 N   0  0  0  0  0  0  0  0  0  0  0  0
    5.0590    6.9130   -0.3350 C   0  0  0  0  0  0  0  0  0  0  0  0
    4.8790    8.1240   -0.8510 N   0  0  0  0  0  0  0  0  0  0  0  0
    6.7000    6.5790    0.2090 B   0  0  0  0  0  0  0  0  0  0  0  0
    6.0470    8.8530   -0.8730 C   0  0  0  0  0  0  0  0  0  0  0  0
    7.1200    8.1660   -0.3630 C   0  0  0  0  0  0  0  0  0  0  0  0
    8.4350    8.7420   -0.2840 C   0  0  0  0  0  0  0  0  0  0  0  0
    9.9630    7.8700   -0.5280 C   0  0  0  0  0  0  0  0  0  0  0  0
    8.7010   10.0630   -0.0190 C   0  0  0  0  0  0  0  0  0  0  0  0
   10.9260    9.3410   -0.2680 C   0  0  0  0  0  0  0  0  0  0  0  0
    7.6250   11.3710    0.3820 S   0  0  0  0  0  0  0  0  0  0  0  0
   10.0530   10.3580   -0.0080 C   0  0  0  0  0  0  0  0  0  0  0  0
    9.0850   12.3990    0.5270 C   0  0  0  0  0  0  0  0  0  0  0  0
   10.2790   11.7230    0.3010 C   0  0  0  0  0  0  0  0  0  0  0  0
   -0.9480   -0.7070    0.9920 H   0  0  0  0  0  0  0  0  0  0  0  0
    1.3790   -0.5960    1.8640 H   0  0  0  0  0  0  0  0  0  0  0  0
   -1.8740    1.2230   -0.2750 H   0  0  0  0  0  0  0  0  0  0  0  0
    2.7500    1.3620    1.4930 H   0  0  0  0  0  0  0  0  0  0  0  0
   -0.5480    3.1960   -0.6690 H   0  0  0  0  0  0  0  0  0  0  0  0
    3.9040    2.9320    1.2030 H   0  0  0  0  0  0  0  0  0  0  0  0
    6.0390    9.8490   -1.2950 H   0  0  0  0  0  0  0  0  0  0  0  0
   12.0060    9.3360   -0.3080 H   0  0  0  0  0  0  0  0  0  0  0  0
    8.9560   13.4430    0.7810 H   0  0  0  0  0  0  0  0  0  0  0  0
   11.2650   12.1710    0.3590 H   0  0  0  0  0  0  0  0  0  0  0  0
  1 29  1  0  0  0  0
  1  2  2  0  0  0  0
  2 30  1  0  0  0  0
  3  1  1  0  0  0  0
  4  2  1  0  0  0  0
  4 32  1  0  0  0  0
  5  3  2  0  0  0  0
  5  6  1  0  0  0  0
  6  4  2  0  0  0  0
  7  6  1  0  0  0  0
  7  8  2  0  0  0  0
  8 34  1  0  0  0  0
  9  7  1  0  0  0  0
 10  8  1  0  0  0  0
 11  9  2  0  0  0  0
 12  9  1  0  0  0  0
 12 13  1  0  0  0  0
 13 10  2  0  0  0  0
 14 15  1  0  0  0  0
 14 11  1  0  0  0  0
 15 12  2  0  0  0  0
 16 13  1  0  0  0  0
 16 18  1  0  0  0  0
 17 16  2  0  0  0  0
 19 17  1  0  0  0  0
 19 20  1  0  0  0  0
 20 21  1  0  0  0  0
 20 18  2  0  0  0  0
 21 23  1  0  0  0  0
 22 21  2  0  0  0  0
 22 24  1  0  0  0  0
 23 26  1  0  0  0  0
 23 25  2  0  0  0  0
 24 26  2  0  0  0  0
 25 27  1  0  0  0  0
 26 28  1  0  0  0  0
 27 37  1  0  0  0  0
 28 38  1  0  0  0  0
 28 27  2  0  0  0  0
 31  3  1  0  0  0  0
 33  5  1  0  0  0  0
 35 19  1  0  0  0  0
 36 24  1  0  0  0  0
M  END
$$$$
