scan_sander_basal_param/min_pdbs/min_pdb_C271_000.pdb
 OpenBabel10021702273D

 37 42  0  0  1  0  0  0  0  0999 V2000
    0.5010   -0.2130   -0.1060 C   0  0  0  0  0  0  0  0  0  0  0  0
    1.5260    0.0910    0.8040 C   0  0  0  0  0  0  0  0  0  0  0  0
   -0.0040    0.6950   -0.9620 N   0  0  0  0  0  0  0  0  0  0  0  0
    2.0470    1.3940    0.8300 C   0  0  0  0  0  0  0  0  0  0  0  0
    0.4960    1.9480   -0.9330 C   0  0  0  0  0  0  0  0  0  0  0  0
    1.5260    2.3700   -0.0540 C   0  0  0  0  0  0  0  0  0  0  0  0
    2.0710    3.7640   -0.0700 C   0  0  0  0  0  0  0  0  0  0  0  0
    3.4580    3.9980    0.0050 C   0  0  0  0  0  0  0  0  0  0  0  0
    1.2670    4.9230   -0.1560 C   0  0  0  0  0  0  0  0  0  0  0  0
    4.0090    5.2250   -0.0090 N   0  0  0  0  0  0  0  0  0  0  0  0
   -0.0790    4.8790   -0.2090 N   0  0  0  0  0  0  0  0  0  0  0  0
    1.8300    6.1990   -0.1680 C   0  0  0  0  0  0  0  0  0  0  0  0
    3.2480    6.3420   -0.0950 C   0  0  0  0  0  0  0  0  0  0  0  0
   -0.5560    6.4360   -0.2840 S   0  0  0  0  0  0  0  0  0  0  0  0
    0.9010    7.1740   -0.2430 N   0  0  0  0  0  0  0  0  0  0  0  0
    4.1080    7.5610   -0.0950 C   0  0  2  0  0  0  0  0  0  0  0  0
    5.8830    7.4210    0.0090 B   0  0  0  0  0  0  0  0  0  0  0  0
    3.7810    8.9110   -0.1650 C   0  0  0  0  0  0  0  0  0  0  0  0
    6.1180    9.1640   -0.0410 C   0  0  0  0  0  0  0  0  0  0  0  0
    2.2460    9.7330   -0.2890 S   0  0  0  0  0  0  0  0  0  0  0  0
    4.8880    9.7690   -0.1350 C   0  0  0  0  0  0  0  0  0  0  0  0
    7.4070    9.8070    0.0020 C   0  0  0  0  0  0  0  0  0  0  0  0
    3.1170   11.2830   -0.2980 C   0  0  0  0  0  0  0  0  0  0  0  0
    4.4910   11.1390   -0.2120 C   0  0  0  0  0  0  0  0  0  0  0  0
    7.4940   11.1230   -0.0560 C   0  0  0  0  0  0  0  0  0  0  0  0
    8.9150    8.9280    0.1280 S   0  0  0  0  0  0  0  0  0  0  0  0
    8.8120   11.5180   -0.0010 C   0  0  0  0  0  0  0  0  0  0  0  0
    9.7120   10.4820    0.0990 C   0  0  0  0  0  0  0  0  0  0  0  0
    0.0730   -1.2140   -0.1540 H   0  0  0  0  0  0  0  0  0  0  0  0
    1.9060   -0.6720    1.4770 H   0  0  0  0  0  0  0  0  0  0  0  0
    2.8370    1.6510    1.5300 H   0  0  0  0  0  0  0  0  0  0  0  0
    0.0660    2.6440   -1.6520 H   0  0  0  0  0  0  0  0  0  0  0  0
    4.1570    3.1640    0.0680 H   0  0  0  0  0  0  0  0  0  0  0  0
    2.5490   12.2010   -0.3670 H   0  0  0  0  0  0  0  0  0  0  0  0
    5.1740   11.9790   -0.2050 H   0  0  0  0  0  0  0  0  0  0  0  0
    9.0460   12.5750   -0.0380 H   0  0  0  0  0  0  0  0  0  0  0  0
   10.7900   10.5330    0.1570 H   0  0  0  0  0  0  0  0  0  0  0  0
  1  2  2  0  0  0  0
  2  4  1  0  0  0  0
  2 30  1  0  0  0  0
  3  5  2  0  0  0  0
  3  1  1  0  0  0  0
  4 31  1  0  0  0  0
  5  6  1  0  0  0  0
  6  4  2  0  0  0  0
  7  6  1  0  0  0  0
  7  8  2  0  0  0  0
  8 33  1  0  0  0  0
  9  7  1  0  0  0  0
 10  8  1  0  0  0  0
 11  9  2  0  0  0  0
 12  9  1  0  0  0  0
 12 13  1  0  0  0  0
 13 10  2  0  0  0  0
 14 15  1  0  0  0  0
 14 11  1  0  0  0  0
 15 12  2  0  0  0  0
 16 13  1  1  0  0  0
 16 17  1  0  0  0  0
 18 21  2  0  0  0  0
 18 16  1  0  0  0  0
 19 22  1  0  0  0  0
 19 17  2  0  0  0  0
 20 18  1  0  0  0  0
 21 19  1  0  0  0  0
 22 26  1  0  0  0  0
 23 20  1  0  0  0  0
 23 24  2  0  0  0  0
 24 35  1  0  0  0  0
 24 21  1  0  0  0  0
 25 27  1  0  0  0  0
 25 22  2  0  0  0  0
 27 28  2  0  0  0  0
 28 26  1  0  0  0  0
 28 37  1  0  0  0  0
 29  1  1  0  0  0  0
 32  5  1  0  0  0  0
 34 23  1  0  0  0  0
 36 27  1  0  0  0  0
M  END
$$$$
scan_sander_basal_param/min_pdbs/min_pdb_C271_015.pdb
 OpenBabel10021702273D

 37 42  0  0  1  0  0  0  0  0999 V2000
    0.4320   -0.1850   -0.0040 C   0  0  0  0  0  0  0  0  0  0  0  0
    1.3290    0.1910    1.0080 C   0  0  0  0  0  0  0  0  0  0  0  0
    0.0780    0.6430   -1.0050 N   0  0  0  0  0  0  0  0  0  0  0  0
    1.8790    1.4820    0.9840 C   0  0  0  0  0  0  0  0  0  0  0  0
    0.6050    1.8850   -1.0250 C   0  0  0  0  0  0  0  0  0  0  0  0
    1.5150    2.3750   -0.0520 C   0  0  0  0  0  0  0  0  0  0  0  0
    2.0970    3.7520   -0.1220 C   0  0  0  0  0  0  0  0  0  0  0  0
    3.4680    3.9680    0.1280 C   0  0  0  0  0  0  0  0  0  0  0  0
    1.3480    4.9110   -0.4290 C   0  0  0  0  0  0  0  0  0  0  0  0
    4.0540    5.1790    0.0900 N   0  0  0  0  0  0  0  0  0  0  0  0
    0.0320    4.8860   -0.7200 N   0  0  0  0  0  0  0  0  0  0  0  0
    1.9430    6.1700   -0.4600 C   0  0  0  0  0  0  0  0  0  0  0  0
    3.3320    6.2940   -0.1720 C   0  0  0  0  0  0  0  0  0  0  0  0
   -0.3590    6.4310   -1.0690 S   0  0  0  0  0  0  0  0  0  0  0  0
    1.0960    7.1440   -0.8560 N   0  0  0  0  0  0  0  0  0  0  0  0
    4.1820    7.5110   -0.1110 C   0  0  1  0  0  0  0  0  0  0  0  0
    5.9580    7.4080   -0.1260 B   0  0  0  0  0  0  0  0  0  0  0  0
    3.8140    8.8460   -0.0390 C   0  0  0  0  0  0  0  0  0  0  0  0
    6.1430    9.1600   -0.0740 C   0  0  0  0  0  0  0  0  0  0  0  0
    2.2570    9.5940    0.2210 S   0  0  0  0  0  0  0  0  0  0  0  0
    4.8950    9.7320   -0.0090 C   0  0  0  0  0  0  0  0  0  0  0  0
    7.4130    9.8410   -0.1070 C   0  0  0  0  0  0  0  0  0  0  0  0
    3.0770   11.1750    0.2450 C   0  0  0  0  0  0  0  0  0  0  0  0
    4.4550   11.0830    0.1330 C   0  0  0  0  0  0  0  0  0  0  0  0
    7.4560   11.1600   -0.0790 C   0  0  0  0  0  0  0  0  0  0  0  0
    8.9490    9.0080   -0.1870 S   0  0  0  0  0  0  0  0  0  0  0  0
    8.7620   11.5950   -0.1210 C   0  0  0  0  0  0  0  0  0  0  0  0
    9.6960   10.5870   -0.1800 C   0  0  0  0  0  0  0  0  0  0  0  0
   -0.0140   -1.1790   -0.0180 H   0  0  0  0  0  0  0  0  0  0  0  0
    1.5890   -0.5080    1.7980 H   0  0  0  0  0  0  0  0  0  0  0  0
    2.5710    1.7940    1.7620 H   0  0  0  0  0  0  0  0  0  0  0  0
    0.3010    2.5120   -1.8610 H   0  0  0  0  0  0  0  0  0  0  0  0
    4.1270    3.1300    0.3560 H   0  0  0  0  0  0  0  0  0  0  0  0
    2.4810   12.0690    0.3690 H   0  0  0  0  0  0  0  0  0  0  0  0
    5.1110   11.9430    0.1720 H   0  0  0  0  0  0  0  0  0  0  0  0
    8.9620   12.6600   -0.1050 H   0  0  0  0  0  0  0  0  0  0  0  0
   10.7730   10.6710   -0.2210 H   0  0  0  0  0  0  0  0  0  0  0  0
  1  2  2  0  0  0  0
  2 30  1  0  0  0  0
  3  1  1  0  0  0  0
  4  2  1  0  0  0  0
  4 31  1  0  0  0  0
  5  3  2  0  0  0  0
  5  6  1  0  0  0  0
  6  4  2  0  0  0  0
  7  6  1  0  0  0  0
  7  8  2  0  0  0  0
  8 33  1  0  0  0  0
  9  7  1  0  0  0  0
 10  8  1  0  0  0  0
 11  9  2  0  0  0  0
 12  9  1  0  0  0  0
 12 13  1  0  0  0  0
 13 10  2  0  0  0  0
 14 15  1  0  0  0  0
 14 11  1  0  0  0  0
 15 12  2  0  0  0  0
 16 13  1  6  0  0  0
 16 18  1  0  0  0  0
 17 16  1  0  0  0  0
 17 19  2  0  0  0  0
 18 21  2  0  0  0  0
 18 20  1  0  0  0  0
 19 21  1  0  0  0  0
 20 23  1  0  0  0  0
 21 24  1  0  0  0  0
 22 25  2  0  0  0  0
 22 19  1  0  0  0  0
 23 34  1  0  0  0  0
 24 35  1  0  0  0  0
 24 23  2  0  0  0  0
 26 28  1  0  0  0  0
 26 22  1  0  0  0  0
 27 36  1  0  0  0  0
 27 25  1  0  0  0  0
 28 27  2  0  0  0  0
 29  1  1  0  0  0  0
 32  5  1  0  0  0  0
 37 28  1  0  0  0  0
M  END
$$$$
scan_sander_basal_param/min_pdbs/min_pdb_C271_030.pdb
 OpenBabel10021702273D

 37 42  0  0  1  0  0  0  0  0999 V2000
    0.2980   -0.1170    0.0430 C   0  0  0  0  0  0  0  0  0  0  0  0
    1.0780    0.3010    1.1330 C   0  0  0  0  0  0  0  0  0  0  0  0
    0.1080    0.6470   -1.0490 N   0  0  0  0  0  0  0  0  0  0  0  0
    1.6830    1.5670    1.0900 C   0  0  0  0  0  0  0  0  0  0  0  0
    0.6870    1.8640   -1.0870 C   0  0  0  0  0  0  0  0  0  0  0  0
    1.4900    2.3930   -0.0430 C   0  0  0  0  0  0  0  0  0  0  0  0
    2.1360    3.7400   -0.1330 C   0  0  0  0  0  0  0  0  0  0  0  0
    3.4760    3.9260    0.2740 C   0  0  0  0  0  0  0  0  0  0  0  0
    1.4780    4.8970   -0.6130 C   0  0  0  0  0  0  0  0  0  0  0  0
    4.1170    5.1100    0.2280 N   0  0  0  0  0  0  0  0  0  0  0  0
    0.2110    4.9050   -1.0740 N   0  0  0  0  0  0  0  0  0  0  0  0
    2.1270    6.1260   -0.6520 C   0  0  0  0  0  0  0  0  0  0  0  0
    3.4700    6.2160   -0.2010 C   0  0  0  0  0  0  0  0  0  0  0  0
   -0.0520    6.4370   -1.5770 S   0  0  0  0  0  0  0  0  0  0  0  0
    1.3970    7.1090   -1.2250 N   0  0  0  0  0  0  0  0  0  0  0  0
    4.3080    7.4270   -0.1340 C   0  0  1  0  0  0  0  0  0  0  0  0
    6.0730    7.4010   -0.3140 B   0  0  0  0  0  0  0  0  0  0  0  0
    3.8850    8.7270    0.0690 C   0  0  0  0  0  0  0  0  0  0  0  0
    6.1820    9.1560   -0.1330 C   0  0  0  0  0  0  0  0  0  0  0  0
    2.3200    9.3350    0.5410 S   0  0  0  0  0  0  0  0  0  0  0  0
    4.9210    9.6600    0.0840 C   0  0  0  0  0  0  0  0  0  0  0  0
    7.4100    9.9060   -0.2160 C   0  0  0  0  0  0  0  0  0  0  0  0
    3.0570   10.9570    0.6280 C   0  0  0  0  0  0  0  0  0  0  0  0
    4.4230   10.9640    0.3840 C   0  0  0  0  0  0  0  0  0  0  0  0
    7.3910   11.2190   -0.0830 C   0  0  0  0  0  0  0  0  0  0  0  0
    8.9710    9.1670   -0.4930 S   0  0  0  0  0  0  0  0  0  0  0  0
    8.6650   11.7280   -0.1980 C   0  0  0  0  0  0  0  0  0  0  0  0
    9.6380   10.7800   -0.4190 C   0  0  0  0  0  0  0  0  0  0  0  0
   -0.1860   -1.0940    0.0420 H   0  0  0  0  0  0  0  0  0  0  0  0
    1.2080   -0.3470    1.9950 H   0  0  0  0  0  0  0  0  0  0  0  0
    2.2860    1.9110    1.9260 H   0  0  0  0  0  0  0  0  0  0  0  0
    0.5160    2.4390   -1.9960 H   0  0  0  0  0  0  0  0  0  0  0  0
    4.0630    3.0840    0.6400 H   0  0  0  0  0  0  0  0  0  0  0  0
    2.4280   11.7990    0.8860 H   0  0  0  0  0  0  0  0  0  0  0  0
    5.0340   11.8560    0.4440 H   0  0  0  0  0  0  0  0  0  0  0  0
    8.8140   12.7980   -0.1110 H   0  0  0  0  0  0  0  0  0  0  0  0
   10.7020   10.9280   -0.5420 H   0  0  0  0  0  0  0  0  0  0  0  0
  1  2  2  0  0  0  0
  2 30  1  0  0  0  0
  3  1  1  0  0  0  0
  4  2  1  0  0  0  0
  4 31  1  0  0  0  0
  5  3  2  0  0  0  0
  5  6  1  0  0  0  0
  6  4  2  0  0  0  0
  7  6  1  0  0  0  0
  7  8  2  0  0  0  0
  8 33  1  0  0  0  0
  9  7  1  0  0  0  0
 10  8  1  0  0  0  0
 11  9  2  0  0  0  0
 12  9  1  0  0  0  0
 12 13  1  0  0  0  0
 13 10  2  0  0  0  0
 14 15  1  0  0  0  0
 14 11  1  0  0  0  0
 15 12  2  0  0  0  0
 16 13  1  6  0  0  0
 16 18  1  0  0  0  0
 17 16  1  0  0  0  0
 17 19  2  0  0  0  0
 18 21  2  0  0  0  0
 18 20  1  0  0  0  0
 19 21  1  0  0  0  0
 20 23  1  0  0  0  0
 21 24  1  0  0  0  0
 22 19  1  0  0  0  0
 22 25  2  0  0  0  0
 23 34  1  0  0  0  0
 24 35  1  0  0  0  0
 24 23  2  0  0  0  0
 26 28  1  0  0  0  0
 26 22  1  0  0  0  0
 27 36  1  0  0  0  0
 27 25  1  0  0  0  0
 28 27  2  0  0  0  0
 29  1  1  0  0  0  0
 32  5  1  0  0  0  0
 37 28  1  0  0  0  0
M  END
$$$$
scan_sander_basal_param/min_pdbs/min_pdb_C271_045.pdb
 OpenBabel10021702273D

 37 42  0  0  1  0  0  0  0  0999 V2000
    0.1800   -0.0490    0.0630 C   0  0  0  0  0  0  0  0  0  0  0  0
    0.8380    0.4160    1.2130 C   0  0  0  0  0  0  0  0  0  0  0  0
    0.1510    0.6480   -1.0890 N   0  0  0  0  0  0  0  0  0  0  0  0
    1.4910    1.6580    1.1670 C   0  0  0  0  0  0  0  0  0  0  0  0
    0.7760    1.8430   -1.1290 C   0  0  0  0  0  0  0  0  0  0  0  0
    1.4660    2.4130   -0.0290 C   0  0  0  0  0  0  0  0  0  0  0  0
    2.1680    3.7320   -0.1230 C   0  0  0  0  0  0  0  0  0  0  0  0
    3.4580    3.9060    0.4330 C   0  0  0  0  0  0  0  0  0  0  0  0
    1.6130    4.8720   -0.7510 C   0  0  0  0  0  0  0  0  0  0  0  0
    4.1470    5.0640    0.3900 N   0  0  0  0  0  0  0  0  0  0  0  0
    0.4050    4.8990   -1.3480 N   0  0  0  0  0  0  0  0  0  0  0  0
    2.3100    6.0720   -0.7910 C   0  0  0  0  0  0  0  0  0  0  0  0
    3.5910    6.1460   -0.1950 C   0  0  0  0  0  0  0  0  0  0  0  0
    0.2590    6.4130   -1.9500 S   0  0  0  0  0  0  0  0  0  0  0  0
    1.6850    7.0590   -1.4730 N   0  0  0  0  0  0  0  0  0  0  0  0
    4.4240    7.3520   -0.1470 C   0  0  0  0  0  0  0  0  0  0  0  0
    6.1570    7.4110   -0.5010 B   0  0  0  0  0  0  0  0  0  0  0  0
    3.9680    8.6070    0.1840 C   0  0  0  0  0  0  0  0  0  0  0  0
    6.2110    9.1560   -0.1940 C   0  0  2  0  0  0  0  0  0  0  0  0
    2.4000    9.0930    0.7670 S   0  0  0  0  0  0  0  0  0  0  0  0
    4.9540    9.5860    0.1690 C   0  0  0  0  0  0  0  0  0  0  0  0
    7.3940    9.9680   -0.3210 C   0  0  0  0  0  0  0  0  0  0  0  0
    3.0700   10.7420    0.9180 C   0  0  0  0  0  0  0  0  0  0  0  0
    4.4140   10.8400    0.5840 C   0  0  0  0  0  0  0  0  0  0  0  0
    7.3290   11.2650   -0.0840 C   0  0  0  0  0  0  0  0  0  0  0  0
    8.9550    9.3310   -0.7850 S   0  0  0  0  0  0  0  0  0  0  0  0
    8.5650   11.8440   -0.2650 C   0  0  0  0  0  0  0  0  0  0  0  0
    9.5550   10.9650   -0.6410 C   0  0  0  0  0  0  0  0  0  0  0  0
   -0.3360   -1.0080    0.0620 H   0  0  0  0  0  0  0  0  0  0  0  0
    0.8390   -0.1780    2.1220 H   0  0  0  0  0  0  0  0  0  0  0  0
    2.0020    2.0380    2.0480 H   0  0  0  0  0  0  0  0  0  0  0  0
    0.7370    2.3630   -2.0850 H   0  0  0  0  0  0  0  0  0  0  0  0
    3.9630    3.0740    0.9230 H   0  0  0  0  0  0  0  0  0  0  0  0
    2.4190   11.5330    1.2680 H   0  0  0  0  0  0  0  0  0  0  0  0
    4.9820   11.7600    0.6510 H   0  0  0  0  0  0  0  0  0  0  0  0
    8.6750   12.9110   -0.1070 H   0  0  0  0  0  0  0  0  0  0  0  0
   10.5970   11.1750   -0.8410 H   0  0  0  0  0  0  0  0  0  0  0  0
  1  2  2  0  0  0  0
  2 30  1  0  0  0  0
  3  1  1  0  0  0  0
  4  2  1  0  0  0  0
  4 31  1  0  0  0  0
  5  3  2  0  0  0  0
  5  6  1  0  0  0  0
  6  4  2  0  0  0  0
  7  6  1  0  0  0  0
  7  8  2  0  0  0  0
  8 33  1  0  0  0  0
  9  7  1  0  0  0  0
 10  8  1  0  0  0  0
 11  9  2  0  0  0  0
 12  9  1  0  0  0  0
 12 13  1  0  0  0  0
 13 16  1  0  0  0  0
 13 10  2  0  0  0  0
 14 15  1  0  0  0  0
 14 11  1  0  0  0  0
 15 12  2  0  0  0  0
 16 18  1  0  0  0  0
 17 19  1  0  0  0  0
 17 16  2  0  0  0  0
 18 20  1  0  0  0  0
 19 22  1  6  0  0  0
 19 21  1  0  0  0  0
 20 23  1  0  0  0  0
 21 18  2  0  0  0  0
 21 24  1  0  0  0  0
 22 25  2  0  0  0  0
 23 34  1  0  0  0  0
 24 35  1  0  0  0  0
 24 23  2  0  0  0  0
 26 28  1  0  0  0  0
 26 22  1  0  0  0  0
 27 36  1  0  0  0  0
 27 25  1  0  0  0  0
 28 27  2  0  0  0  0
 29  1  1  0  0  0  0
 32  5  1  0  0  0  0
 37 28  1  0  0  0  0
M  END
$$$$
scan_sander_basal_param/min_pdbs/min_pdb_C271_060.pdb
 OpenBabel10021702273D

 37 42  0  0  1  0  0  0  0  0999 V2000
    0.0950    0.0070    0.0710 C   0  0  0  0  0  0  0  0  0  0  0  0
    0.6210    0.5340    1.2620 C   0  0  0  0  0  0  0  0  0  0  0  0
    0.2240    0.6270   -1.1170 N   0  0  0  0  0  0  0  0  0  0  0  0
    1.3070    1.7580    1.2180 C   0  0  0  0  0  0  0  0  0  0  0  0
    0.8810    1.8050   -1.1560 C   0  0  0  0  0  0  0  0  0  0  0  0
    1.4480    2.4330   -0.0180 C   0  0  0  0  0  0  0  0  0  0  0  0
    2.1900    3.7290   -0.1090 C   0  0  0  0  0  0  0  0  0  0  0  0
    3.4090    3.9170    0.5880 C   0  0  0  0  0  0  0  0  0  0  0  0
    1.7420    4.8340   -0.8720 C   0  0  0  0  0  0  0  0  0  0  0  0
    4.1300    5.0560    0.5540 N   0  0  0  0  0  0  0  0  0  0  0  0
    0.6070    4.8550   -1.5970 N   0  0  0  0  0  0  0  0  0  0  0  0
    2.4750    6.0100   -0.9100 C   0  0  0  0  0  0  0  0  0  0  0  0
    3.6770    6.0970   -0.1760 C   0  0  0  0  0  0  0  0  0  0  0  0
    0.5660    6.3410   -2.2820 S   0  0  0  0  0  0  0  0  0  0  0  0
    1.9480    6.9840   -1.6870 N   0  0  0  0  0  0  0  0  0  0  0  0
    4.5070    7.2980   -0.1470 C   0  0  0  0  0  0  0  0  0  0  0  0
    6.1920    7.4360   -0.6670 B   0  0  0  0  0  0  0  0  0  0  0  0
    4.0480    8.5070    0.3080 C   0  0  0  0  0  0  0  0  0  0  0  0
    6.2220    9.1610   -0.2440 C   0  0  2  0  0  0  0  0  0  0  0  0
    2.4920    8.8960    0.9780 S   0  0  0  0  0  0  0  0  0  0  0  0
    4.9910    9.5230    0.2570 C   0  0  0  0  0  0  0  0  0  0  0  0
    7.3620   10.0230   -0.4180 C   0  0  0  0  0  0  0  0  0  0  0  0
    3.1170   10.5600    1.1860 C   0  0  0  0  0  0  0  0  0  0  0  0
    4.4330   10.7310    0.7700 C   0  0  0  0  0  0  0  0  0  0  0  0
    7.2780   11.2980   -0.0860 C   0  0  0  0  0  0  0  0  0  0  0  0
    8.8950    9.4780   -1.0610 S   0  0  0  0  0  0  0  0  0  0  0  0
    8.4740   11.9340   -0.3330 C   0  0  0  0  0  0  0  0  0  0  0  0
    9.4530   11.1200   -0.8550 C   0  0  0  0  0  0  0  0  0  0  0  0
   -0.4430   -0.9410    0.0670 H   0  0  0  0  0  0  0  0  0  0  0  0
    0.4960    0.0010    2.1990 H   0  0  0  0  0  0  0  0  0  0  0  0
    1.7170    2.1850    2.1290 H   0  0  0  0  0  0  0  0  0  0  0  0
    0.9710    2.2620   -2.1400 H   0  0  0  0  0  0  0  0  0  0  0  0
    3.8270    3.1120    1.1920 H   0  0  0  0  0  0  0  0  0  0  0  0
    2.4610   11.3060    1.6140 H   0  0  0  0  0  0  0  0  0  0  0  0
    4.9660   11.6720    0.8380 H   0  0  0  0  0  0  0  0  0  0  0  0
    8.5630   12.9900   -0.1110 H   0  0  0  0  0  0  0  0  0  0  0  0
   10.4650   11.3820   -1.1310 H   0  0  0  0  0  0  0  0  0  0  0  0
  1  2  2  0  0  0  0
  2 30  1  0  0  0  0
  3  1  1  0  0  0  0
  4  2  1  0  0  0  0
  4 31  1  0  0  0  0
  5  3  2  0  0  0  0
  5  6  1  0  0  0  0
  6  4  2  0  0  0  0
  7  6  1  0  0  0  0
  7  8  2  0  0  0  0
  8 33  1  0  0  0  0
  9  7  1  0  0  0  0
 10  8  1  0  0  0  0
 11  9  2  0  0  0  0
 12  9  1  0  0  0  0
 12 13  1  0  0  0  0
 13 16  1  0  0  0  0
 13 10  2  0  0  0  0
 14 15  1  0  0  0  0
 14 11  1  0  0  0  0
 15 12  2  0  0  0  0
 16 18  1  0  0  0  0
 17 19  1  0  0  0  0
 17 16  2  0  0  0  0
 18 20  1  0  0  0  0
 19 22  1  6  0  0  0
 19 21  1  0  0  0  0
 20 23  1  0  0  0  0
 21 18  2  0  0  0  0
 21 24  1  0  0  0  0
 22 25  2  0  0  0  0
 23 34  1  0  0  0  0
 24 35  1  0  0  0  0
 24 23  2  0  0  0  0
 26 28  1  0  0  0  0
 26 22  1  0  0  0  0
 27 36  1  0  0  0  0
 27 25  1  0  0  0  0
 28 27  2  0  0  0  0
 29  1  1  0  0  0  0
 32  5  1  0  0  0  0
 37 28  1  0  0  0  0
M  END
$$$$
scan_sander_basal_param/min_pdbs/min_pdb_C271_075.pdb
 OpenBabel10021702273D

 37 42  0  0  1  0  0  0  0  0999 V2000
    0.0470    0.0420    0.0910 C   0  0  0  0  0  0  0  0  0  0  0  0
    0.4280    0.6550    1.2960 C   0  0  0  0  0  0  0  0  0  0  0  0
    0.3310    0.5700   -1.1140 N   0  0  0  0  0  0  0  0  0  0  0  0
    1.1310    1.8690    1.2470 C   0  0  0  0  0  0  0  0  0  0  0  0
    1.0030    1.7390   -1.1580 C   0  0  0  0  0  0  0  0  0  0  0  0
    1.4330    2.4490   -0.0080 C   0  0  0  0  0  0  0  0  0  0  0  0
    2.1980    3.7310   -0.1020 C   0  0  0  0  0  0  0  0  0  0  0  0
    3.3240    3.9660    0.7250 C   0  0  0  0  0  0  0  0  0  0  0  0
    1.8620    4.7760   -0.9970 C   0  0  0  0  0  0  0  0  0  0  0  0
    4.0600    5.0970    0.6950 N   0  0  0  0  0  0  0  0  0  0  0  0
    0.8200    4.7530   -1.8500 N   0  0  0  0  0  0  0  0  0  0  0  0
    2.6120    5.9410   -1.0320 C   0  0  0  0  0  0  0  0  0  0  0  0
    3.7140    6.0760   -0.1660 C   0  0  0  0  0  0  0  0  0  0  0  0
    0.8790    6.1910   -2.6320 S   0  0  0  0  0  0  0  0  0  0  0  0
    2.1910    6.8670   -1.9230 N   0  0  0  0  0  0  0  0  0  0  0  0
    4.5420    7.2750   -0.1490 C   0  0  0  0  0  0  0  0  0  0  0  0
    6.1660    7.4780   -0.8170 B   0  0  0  0  0  0  0  0  0  0  0  0
    4.1100    8.4410    0.4230 C   0  0  0  0  0  0  0  0  0  0  0  0
    6.2080    9.1750   -0.2890 C   0  0  2  0  0  0  0  0  0  0  0  0
    2.5960    8.7580    1.2110 S   0  0  0  0  0  0  0  0  0  0  0  0
    5.0230    9.4800    0.3440 C   0  0  0  0  0  0  0  0  0  0  0  0
    7.3140   10.0720   -0.5100 C   0  0  0  0  0  0  0  0  0  0  0  0
    3.2070   10.4200    1.4690 C   0  0  0  0  0  0  0  0  0  0  0  0
    4.4840   10.6460    0.9630 C   0  0  0  0  0  0  0  0  0  0  0  0
    7.2390   11.3210   -0.0900 C   0  0  0  0  0  0  0  0  0  0  0  0
    8.7900    9.6010   -1.3220 S   0  0  0  0  0  0  0  0  0  0  0  0
    8.3970   11.9980   -0.4030 C   0  0  0  0  0  0  0  0  0  0  0  0
    9.3370   11.2400   -1.0620 C   0  0  0  0  0  0  0  0  0  0  0  0
   -0.4990   -0.9010    0.0910 H   0  0  0  0  0  0  0  0  0  0  0  0
    0.1810    0.1950    2.2480 H   0  0  0  0  0  0  0  0  0  0  0  0
    1.4310    2.3620    2.1680 H   0  0  0  0  0  0  0  0  0  0  0  0
    1.2200    2.1210   -2.1550 H   0  0  0  0  0  0  0  0  0  0  0  0
    3.6530    3.2080    1.4360 H   0  0  0  0  0  0  0  0  0  0  0  0
    2.5710   11.1270    1.9850 H   0  0  0  0  0  0  0  0  0  0  0  0
    4.9990   11.5960    1.0360 H   0  0  0  0  0  0  0  0  0  0  0  0
    8.4890   13.0400   -0.1230 H   0  0  0  0  0  0  0  0  0  0  0  0
   10.3160   11.5410   -1.4110 H   0  0  0  0  0  0  0  0  0  0  0  0
  1  2  2  0  0  0  0
  2 30  1  0  0  0  0
  3  1  1  0  0  0  0
  4  2  1  0  0  0  0
  4 31  1  0  0  0  0
  5  3  2  0  0  0  0
  5  6  1  0  0  0  0
  6  4  2  0  0  0  0
  7  6  1  0  0  0  0
  7  8  2  0  0  0  0
  8 33  1  0  0  0  0
  9  7  1  0  0  0  0
 10  8  1  0  0  0  0
 11  9  2  0  0  0  0
 12  9  1  0  0  0  0
 12 13  1  0  0  0  0
 13 16  1  0  0  0  0
 13 10  2  0  0  0  0
 14 15  1  0  0  0  0
 14 11  1  0  0  0  0
 15 12  2  0  0  0  0
 16 18  1  0  0  0  0
 17 19  1  0  0  0  0
 17 16  2  0  0  0  0
 18 20  1  0  0  0  0
 19 22  1  6  0  0  0
 19 21  1  0  0  0  0
 20 23  1  0  0  0  0
 21 18  2  0  0  0  0
 21 24  1  0  0  0  0
 22 25  2  0  0  0  0
 23 34  1  0  0  0  0
 24 35  1  0  0  0  0
 24 23  2  0  0  0  0
 26 28  1  0  0  0  0
 26 22  1  0  0  0  0
 27 36  1  0  0  0  0
 27 25  1  0  0  0  0
 28 27  2  0  0  0  0
 29  1  1  0  0  0  0
 32  5  1  0  0  0  0
 37 28  1  0  0  0  0
M  END
$$$$
scan_sander_basal_param/min_pdbs/min_pdb_C271_090.pdb
 OpenBabel10021702273D

 37 42  0  0  1  0  0  0  0  0999 V2000
    0.0210    0.0610    0.1080 C   0  0  0  0  0  0  0  0  0  0  0  0
    0.2490    0.7700    1.2980 C   0  0  0  0  0  0  0  0  0  0  0  0
    0.4570    0.4940   -1.0910 N   0  0  0  0  0  0  0  0  0  0  0  0
    0.9580    1.9810    1.2420 C   0  0  0  0  0  0  0  0  0  0  0  0
    1.1350    1.6590   -1.1420 C   0  0  0  0  0  0  0  0  0  0  0  0
    1.4190    2.4610   -0.0070 C   0  0  0  0  0  0  0  0  0  0  0  0
    2.1950    3.7360   -0.1050 C   0  0  0  0  0  0  0  0  0  0  0  0
    3.2090    4.0430    0.8370 C   0  0  0  0  0  0  0  0  0  0  0  0
    1.9800    4.7040   -1.1160 C   0  0  0  0  0  0  0  0  0  0  0  0
    3.9480    5.1720    0.8100 N   0  0  0  0  0  0  0  0  0  0  0  0
    1.0540    4.6080   -2.0900 N   0  0  0  0  0  0  0  0  0  0  0  0
    2.7330    5.8660   -1.1490 C   0  0  0  0  0  0  0  0  0  0  0  0
    3.7160    6.0770   -0.1630 C   0  0  0  0  0  0  0  0  0  0  0  0
    1.2170    5.9810   -2.9680 S   0  0  0  0  0  0  0  0  0  0  0  0
    2.4340    6.7170   -2.1560 N   0  0  0  0  0  0  0  0  0  0  0  0
    4.5400    7.2780   -0.1480 C   0  0  0  0  0  0  0  0  0  0  0  0
    6.0930    7.5390   -0.9500 B   0  0  0  0  0  0  0  0  0  0  0  0
    4.1560    8.4010    0.5310 C   0  0  0  0  0  0  0  0  0  0  0  0
    6.1740    9.2010   -0.3260 C   0  0  2  0  0  0  0  0  0  0  0  0
    2.7150    8.6530    1.4660 S   0  0  0  0  0  0  0  0  0  0  0  0
    5.0510    9.4540    0.4310 C   0  0  0  0  0  0  0  0  0  0  0  0
    7.2500   10.1220   -0.5920 C   0  0  0  0  0  0  0  0  0  0  0  0
    3.3370   10.3050    1.7670 C   0  0  0  0  0  0  0  0  0  0  0  0
    4.5620   10.5750    1.1640 C   0  0  0  0  0  0  0  0  0  0  0  0
    7.2060   11.3430   -0.0910 C   0  0  0  0  0  0  0  0  0  0  0  0
    8.6470    9.7190   -1.5630 S   0  0  0  0  0  0  0  0  0  0  0  0
    8.3260   12.0500   -0.4670 C   0  0  0  0  0  0  0  0  0  0  0  0
    9.2060   11.3450   -1.2550 C   0  0  0  0  0  0  0  0  0  0  0  0
   -0.5240   -0.8820    0.1130 H   0  0  0  0  0  0  0  0  0  0  0  0
   -0.1190    0.3860    2.2450 H   0  0  0  0  0  0  0  0  0  0  0  0
    1.1410    2.5470    2.1510 H   0  0  0  0  0  0  0  0  0  0  0  0
    1.4780    1.9620   -2.1300 H   0  0  0  0  0  0  0  0  0  0  0  0
    3.4420    3.3450    1.6410 H   0  0  0  0  0  0  0  0  0  0  0  0
    2.7450   10.9720    2.3790 H   0  0  0  0  0  0  0  0  0  0  0  0
    5.0750   11.5260    1.2470 H   0  0  0  0  0  0  0  0  0  0  0  0
    8.4380   13.0750   -0.1330 H   0  0  0  0  0  0  0  0  0  0  0  0
   10.1470   11.6770   -1.6730 H   0  0  0  0  0  0  0  0  0  0  0  0
  1 29  1  0  0  0  0
  1  2  2  0  0  0  0
  2 30  1  0  0  0  0
  3  1  1  0  0  0  0
  4  2  1  0  0  0  0
  4 31  1  0  0  0  0
  5  3  2  0  0  0  0
  5  6  1  0  0  0  0
  6  4  2  0  0  0  0
  7  6  1  0  0  0  0
  7  8  2  0  0  0  0
  8 33  1  0  0  0  0
  9  7  1  0  0  0  0
 10  8  1  0  0  0  0
 11  9  2  0  0  0  0
 12  9  1  0  0  0  0
 12 13  1  0  0  0  0
 13 16  1  0  0  0  0
 13 10  2  0  0  0  0
 14 15  1  0  0  0  0
 14 11  1  0  0  0  0
 15 12  2  0  0  0  0
 16 18  1  0  0  0  0
 17 19  1  0  0  0  0
 17 16  2  0  0  0  0
 18 20  1  0  0  0  0
 19 22  1  6  0  0  0
 19 21  1  0  0  0  0
 20 23  1  0  0  0  0
 21 18  2  0  0  0  0
 21 24  1  0  0  0  0
 22 25  2  0  0  0  0
 23 34  1  0  0  0  0
 24 35  1  0  0  0  0
 24 23  2  0  0  0  0
 26 28  1  0  0  0  0
 26 22  1  0  0  0  0
 27 36  1  0  0  0  0
 27 25  1  0  0  0  0
 28 27  2  0  0  0  0
 32  5  1  0  0  0  0
 37 28  1  0  0  0  0
M  END
$$$$
scan_sander_basal_param/min_pdbs/min_pdb_C271_105.pdb
 OpenBabel10021702273D

 37 42  0  0  1  0  0  0  0  0999 V2000
   -0.6600    0.5090    0.0860 C   0  0  0  0  0  0  0  0  0  0  0  0
   -0.4020    1.1660   -1.1280 C   0  0  0  0  0  0  0  0  0  0  0  0
   -0.1340    0.9140    1.2570 N   0  0  0  0  0  0  0  0  0  0  0  0
    0.4420    2.2880   -1.1270 C   0  0  0  0  0  0  0  0  0  0  0  0
    0.6800    1.9900    1.2550 C   0  0  0  0  0  0  0  0  0  0  0  0
    1.0150    2.7260    0.0900 C   0  0  0  0  0  0  0  0  0  0  0  0
    1.9020    3.9310    0.1360 C   0  0  0  0  0  0  0  0  0  0  0  0
    1.5760    5.1000   -0.5940 C   0  0  0  0  0  0  0  0  0  0  0  0
    3.1010    3.9880    0.8880 C   0  0  0  0  0  0  0  0  0  0  0  0
    2.3290    6.2200   -0.6010 N   0  0  0  0  0  0  0  0  0  0  0  0
    3.5910    2.9790    1.6340 N   0  0  0  0  0  0  0  0  0  0  0  0
    3.8790    5.1340    0.8850 C   0  0  0  0  0  0  0  0  0  0  0  0
    3.4700    6.2420    0.1190 C   0  0  0  0  0  0  0  0  0  0  0  0
    4.9820    3.5600    2.2740 S   0  0  0  0  0  0  0  0  0  0  0  0
    5.0000    5.0700    1.6390 N   0  0  0  0  0  0  0  0  0  0  0  0
    4.2430    7.4770    0.0890 C   0  0  0  0  0  0  0  0  0  0  0  0
    4.3790    8.7010    1.3570 B   0  0  0  0  0  0  0  0  0  0  0  0
    5.0100    7.8200   -0.9910 C   0  0  0  0  0  0  0  0  0  0  0  0
    5.4920    9.6620    0.3590 C   0  0  2  0  0  0  0  0  0  0  0  0
    5.2280    6.9480   -2.4780 S   0  0  0  0  0  0  0  0  0  0  0  0
    5.6940    9.0150   -0.8410 C   0  0  0  0  0  0  0  0  0  0  0  0
    6.0840   10.9100    0.7670 C   0  0  0  0  0  0  0  0  0  0  0  0
    6.3210    8.2800   -2.9650 C   0  0  0  0  0  0  0  0  0  0  0  0
    6.4650    9.2820   -2.0110 C   0  0  0  0  0  0  0  0  0  0  0  0
    6.9130   11.5390   -0.0450 C   0  0  0  0  0  0  0  0  0  0  0  0
    5.7710   11.6660    2.3120 S   0  0  0  0  0  0  0  0  0  0  0  0
    7.3600   12.7020    0.5400 C   0  0  0  0  0  0  0  0  0  0  0  0
    6.8570   12.9350    1.7990 C   0  0  0  0  0  0  0  0  0  0  0  0
   -1.3100   -0.3640    0.1230 H   0  0  0  0  0  0  0  0  0  0  0  0
   -0.8480    0.8070   -2.0510 H   0  0  0  0  0  0  0  0  0  0  0  0
    0.6590    2.8070   -2.0570 H   0  0  0  0  0  0  0  0  0  0  0  0
    1.0720    2.2870    2.2260 H   0  0  0  0  0  0  0  0  0  0  0  0
    0.6650    5.1410   -1.1910 H   0  0  0  0  0  0  0  0  0  0  0  0
    6.7900    8.2280   -3.9390 H   0  0  0  0  0  0  0  0  0  0  0  0
    7.0910   10.1560   -2.1470 H   0  0  0  0  0  0  0  0  0  0  0  0
    8.0510   13.3340   -0.0060 H   0  0  0  0  0  0  0  0  0  0  0  0
    7.0550   13.7710    2.4560 H   0  0  0  0  0  0  0  0  0  0  0  0
  1 29  1  0  0  0  0
  1  3  2  0  0  0  0
  2  4  2  0  0  0  0
  2  1  1  0  0  0  0
  4  6  1  0  0  0  0
  5  3  1  0  0  0  0
  5 32  1  0  0  0  0
  6  7  1  0  0  0  0
  6  5  2  0  0  0  0
  7  9  1  0  0  0  0
  8  7  2  0  0  0  0
  9 11  2  0  0  0  0
 10  8  1  0  0  0  0
 10 13  2  0  0  0  0
 11 14  1  0  0  0  0
 12  9  1  0  0  0  0
 12 15  2  0  0  0  0
 13 12  1  0  0  0  0
 15 14  1  0  0  0  0
 16 13  1  0  0  0  0
 16 17  2  0  0  0  0
 18 21  2  0  0  0  0
 18 16  1  0  0  0  0
 19 22  1  1  0  0  0
 19 17  1  0  0  0  0
 20 18  1  0  0  0  0
 21 19  1  0  0  0  0
 22 26  1  0  0  0  0
 23 20  1  0  0  0  0
 23 24  2  0  0  0  0
 24 21  1  0  0  0  0
 25 27  1  0  0  0  0
 25 22  2  0  0  0  0
 27 28  2  0  0  0  0
 28 26  1  0  0  0  0
 28 37  1  0  0  0  0
 30  2  1  0  0  0  0
 31  4  1  0  0  0  0
 33  8  1  0  0  0  0
 34 23  1  0  0  0  0
 35 24  1  0  0  0  0
 36 27  1  0  0  0  0
M  END
$$$$
scan_sander_basal_param/min_pdbs/min_pdb_C271_120.pdb
 OpenBabel10021702273D

 37 42  0  0  1  0  0  0  0  0999 V2000
   -0.6350    0.4860    0.0680 C   0  0  0  0  0  0  0  0  0  0  0  0
   -0.2310    1.0370   -1.1580 C   0  0  0  0  0  0  0  0  0  0  0  0
   -0.2510    0.9930    1.2550 N   0  0  0  0  0  0  0  0  0  0  0  0
    0.6110    2.1600   -1.1530 C   0  0  0  0  0  0  0  0  0  0  0  0
    0.5610    2.0700    1.2570 C   0  0  0  0  0  0  0  0  0  0  0  0
    1.0360    2.7060    0.0810 C   0  0  0  0  0  0  0  0  0  0  0  0
    1.9160    3.9150    0.1290 C   0  0  0  0  0  0  0  0  0  0  0  0
    1.6850    5.0150   -0.7330 C   0  0  0  0  0  0  0  0  0  0  0  0
    3.0170    4.0450    1.0110 C   0  0  0  0  0  0  0  0  0  0  0  0
    2.4380    6.1350   -0.7460 N   0  0  0  0  0  0  0  0  0  0  0  0
    3.4090    3.1060    1.8940 N   0  0  0  0  0  0  0  0  0  0  0  0
    3.7950    5.1910    1.0030 C   0  0  0  0  0  0  0  0  0  0  0  0
    3.4870    6.2280    0.0990 C   0  0  0  0  0  0  0  0  0  0  0  0
    4.7160    3.7460    2.6440 S   0  0  0  0  0  0  0  0  0  0  0  0
    4.8170    5.1960    1.8890 N   0  0  0  0  0  0  0  0  0  0  0  0
    4.2600    7.4660    0.0640 C   0  0  0  0  0  0  0  0  0  0  0  0
    4.5250    8.6050    1.3910 B   0  0  0  0  0  0  0  0  0  0  0  0
    4.9290    7.8790   -1.0590 C   0  0  0  0  0  0  0  0  0  0  0  0
    5.5460    9.6290    0.3600 C   0  0  2  0  0  0  0  0  0  0  0  0
    5.0190    7.1050   -2.6120 S   0  0  0  0  0  0  0  0  0  0  0  0
    5.6320    9.0620   -0.8930 C   0  0  0  0  0  0  0  0  0  0  0  0
    6.1800   10.8480    0.7930 C   0  0  0  0  0  0  0  0  0  0  0  0
    6.0700    8.4670   -3.1070 C   0  0  0  0  0  0  0  0  0  0  0  0
    6.3010    9.4040   -2.1060 C   0  0  0  0  0  0  0  0  0  0  0  0
    6.9340   11.5300   -0.0490 C   0  0  0  0  0  0  0  0  0  0  0  0
    6.0130   11.5010    2.4070 S   0  0  0  0  0  0  0  0  0  0  0  0
    7.4380   12.6530    0.5680 C   0  0  0  0  0  0  0  0  0  0  0  0
    7.0540   12.8020    1.8810 C   0  0  0  0  0  0  0  0  0  0  0  0
   -1.2890   -0.3850    0.1020 H   0  0  0  0  0  0  0  0  0  0  0  0
   -0.5650    0.5980   -2.0940 H   0  0  0  0  0  0  0  0  0  0  0  0
    0.9400    2.6000   -2.0910 H   0  0  0  0  0  0  0  0  0  0  0  0
    0.8350    2.4520    2.2390 H   0  0  0  0  0  0  0  0  0  0  0  0
    0.8520    4.9990   -1.4350 H   0  0  0  0  0  0  0  0  0  0  0  0
    6.4530    8.4790   -4.1190 H   0  0  0  0  0  0  0  0  0  0  0  0
    6.9180   10.2850   -2.2390 H   0  0  0  0  0  0  0  0  0  0  0  0
    8.0790   13.3200    0.0040 H   0  0  0  0  0  0  0  0  0  0  0  0
    7.3150   13.5920    2.5710 H   0  0  0  0  0  0  0  0  0  0  0  0
  1 29  1  0  0  0  0
  1  3  2  0  0  0  0
  2  4  2  0  0  0  0
  2  1  1  0  0  0  0
  3  5  1  0  0  0  0
  4  6  1  0  0  0  0
  5 32  1  0  0  0  0
  6  7  1  0  0  0  0
  6  5  2  0  0  0  0
  7  9  1  0  0  0  0
  8  7  2  0  0  0  0
  9 11  2  0  0  0  0
 10  8  1  0  0  0  0
 10 13  2  0  0  0  0
 11 14  1  0  0  0  0
 12  9  1  0  0  0  0
 12 15  2  0  0  0  0
 13 12  1  0  0  0  0
 15 14  1  0  0  0  0
 16 13  1  0  0  0  0
 16 17  2  0  0  0  0
 18 21  2  0  0  0  0
 18 16  1  0  0  0  0
 19 22  1  1  0  0  0
 19 17  1  0  0  0  0
 20 18  1  0  0  0  0
 21 19  1  0  0  0  0
 22 26  1  0  0  0  0
 23 20  1  0  0  0  0
 23 24  2  0  0  0  0
 24 21  1  0  0  0  0
 25 27  1  0  0  0  0
 25 22  2  0  0  0  0
 27 28  2  0  0  0  0
 28 26  1  0  0  0  0
 28 37  1  0  0  0  0
 30  2  1  0  0  0  0
 31  4  1  0  0  0  0
 33  8  1  0  0  0  0
 34 23  1  0  0  0  0
 35 24  1  0  0  0  0
 36 27  1  0  0  0  0
M  END
$$$$
scan_sander_basal_param/min_pdbs/min_pdb_C271_135.pdb
 OpenBabel10021702273D

 37 42  0  0  1  0  0  0  0  0999 V2000
   -0.6160    0.4610    0.0450 C   0  0  0  0  0  0  0  0  0  0  0  0
   -0.0650    0.9080   -1.1660 C   0  0  0  0  0  0  0  0  0  0  0  0
   -0.3730    1.0670    1.2220 N   0  0  0  0  0  0  0  0  0  0  0  0
    0.7780    2.0310   -1.1550 C   0  0  0  0  0  0  0  0  0  0  0  0
    0.4400    2.1440    1.2310 C   0  0  0  0  0  0  0  0  0  0  0  0
    1.0560    2.6810    0.0710 C   0  0  0  0  0  0  0  0  0  0  0  0
    1.9310    3.8930    0.1210 C   0  0  0  0  0  0  0  0  0  0  0  0
    1.8110    4.9150   -0.8510 C   0  0  0  0  0  0  0  0  0  0  0  0
    2.9190    4.1030    1.1130 C   0  0  0  0  0  0  0  0  0  0  0  0
    2.5660    6.0320   -0.8670 N   0  0  0  0  0  0  0  0  0  0  0  0
    3.1980    3.2390    2.1080 N   0  0  0  0  0  0  0  0  0  0  0  0
    3.7000    5.2490    1.1030 C   0  0  0  0  0  0  0  0  0  0  0  0
    3.5090    6.2080    0.0860 C   0  0  0  0  0  0  0  0  0  0  0  0
    4.4120    3.9390    2.9530 S   0  0  0  0  0  0  0  0  0  0  0  0
    4.6120    5.3220    2.1000 N   0  0  0  0  0  0  0  0  0  0  0  0
    4.2870    7.4500    0.0410 C   0  0  0  0  0  0  0  0  0  0  0  0
    4.6850    8.5050    1.4070 B   0  0  0  0  0  0  0  0  0  0  0  0
    4.8520    7.9420   -1.1110 C   0  0  0  0  0  0  0  0  0  0  0  0
    5.6070    9.5970    0.3560 C   0  0  2  0  0  0  0  0  0  0  0  0
    4.8210    7.2720   -2.7180 S   0  0  0  0  0  0  0  0  0  0  0  0
    5.5750    9.1130   -0.9320 C   0  0  0  0  0  0  0  0  0  0  0  0
    6.2800   10.7870    0.8090 C   0  0  0  0  0  0  0  0  0  0  0  0
    5.8240    8.6680   -3.2110 C   0  0  0  0  0  0  0  0  0  0  0  0
    6.1390    9.5370   -2.1730 C   0  0  0  0  0  0  0  0  0  0  0  0
    6.9550   11.5280   -0.0510 C   0  0  0  0  0  0  0  0  0  0  0  0
    6.2650   11.3300    2.4720 S   0  0  0  0  0  0  0  0  0  0  0  0
    7.5170   12.6090    0.5910 C   0  0  0  0  0  0  0  0  0  0  0  0
    7.2550   12.6680    1.9410 C   0  0  0  0  0  0  0  0  0  0  0  0
   -1.2740   -0.4070    0.0740 H   0  0  0  0  0  0  0  0  0  0  0  0
   -0.2870    0.3910   -2.0950 H   0  0  0  0  0  0  0  0  0  0  0  0
    1.2180    2.3910   -2.0810 H   0  0  0  0  0  0  0  0  0  0  0  0
    0.5970    2.6090    2.2030 H   0  0  0  0  0  0  0  0  0  0  0  0
    1.0680    4.8360   -1.6440 H   0  0  0  0  0  0  0  0  0  0  0  0
    6.1200    8.7470   -4.2480 H   0  0  0  0  0  0  0  0  0  0  0  0
    6.7450   10.4260   -2.2990 H   0  0  0  0  0  0  0  0  0  0  0  0
    8.1040   13.3150    0.0160 H   0  0  0  0  0  0  0  0  0  0  0  0
    7.5800   13.4120    2.6550 H   0  0  0  0  0  0  0  0  0  0  0  0
  1 29  1  0  0  0  0
  1  3  2  0  0  0  0
  2  4  2  0  0  0  0
  2  1  1  0  0  0  0
  3  5  1  0  0  0  0
  4  6  1  0  0  0  0
  5 32  1  0  0  0  0
  6  7  1  0  0  0  0
  6  5  2  0  0  0  0
  7  9  1  0  0  0  0
  8  7  2  0  0  0  0
  9 11  2  0  0  0  0
 10  8  1  0  0  0  0
 10 13  2  0  0  0  0
 11 14  1  0  0  0  0
 12  9  1  0  0  0  0
 12 15  2  0  0  0  0
 13 12  1  0  0  0  0
 15 14  1  0  0  0  0
 16 13  1  0  0  0  0
 16 17  2  0  0  0  0
 18 21  2  0  0  0  0
 18 16  1  0  0  0  0
 19 22  1  1  0  0  0
 19 17  1  0  0  0  0
 20 18  1  0  0  0  0
 21 19  1  0  0  0  0
 22 26  1  0  0  0  0
 23 20  1  0  0  0  0
 23 24  2  0  0  0  0
 24 21  1  0  0  0  0
 25 27  1  0  0  0  0
 25 22  2  0  0  0  0
 27 28  2  0  0  0  0
 28 26  1  0  0  0  0
 28 37  1  0  0  0  0
 30  2  1  0  0  0  0
 31  4  1  0  0  0  0
 33  8  1  0  0  0  0
 34 23  1  0  0  0  0
 35 24  1  0  0  0  0
 36 27  1  0  0  0  0
M  END
$$$$
scan_sander_basal_param/min_pdbs/min_pdb_C271_150.pdb
 OpenBabel10021702273D

 37 42  0  0  1  0  0  0  0  0999 V2000
   -0.5980    0.4320    0.0240 C   0  0  0  0  0  0  0  0  0  0  0  0
    0.1000    0.7770   -1.1440 C   0  0  0  0  0  0  0  0  0  0  0  0
   -0.4960    1.1380    1.1660 N   0  0  0  0  0  0  0  0  0  0  0  0
    0.9430    1.9000   -1.1260 C   0  0  0  0  0  0  0  0  0  0  0  0
    0.3160    2.2150    1.1820 C   0  0  0  0  0  0  0  0  0  0  0  0
    1.0730    2.6520    0.0650 C   0  0  0  0  0  0  0  0  0  0  0  0
    1.9450    3.8670    0.1190 C   0  0  0  0  0  0  0  0  0  0  0  0
    1.9520    4.8020   -0.9420 C   0  0  0  0  0  0  0  0  0  0  0  0
    2.8060    4.1650    1.2010 C   0  0  0  0  0  0  0  0  0  0  0  0
    2.7110    5.9160   -0.9580 N   0  0  0  0  0  0  0  0  0  0  0  0
    2.9560    3.3840    2.2880 N   0  0  0  0  0  0  0  0  0  0  0  0
    3.5900    5.3110    1.1920 C   0  0  0  0  0  0  0  0  0  0  0  0
    3.5310    6.1880    0.0820 C   0  0  0  0  0  0  0  0  0  0  0  0
    4.0650    4.1480    3.2150 S   0  0  0  0  0  0  0  0  0  0  0  0
    4.3780    5.4570    2.2830 N   0  0  0  0  0  0  0  0  0  0  0  0
    4.3190    7.4330    0.0210 C   0  0  1  0  0  0  0  0  0  0  0  0
    4.8550    8.4120    1.4010 B   0  0  0  0  0  0  0  0  0  0  0  0
    4.7790    8.0020   -1.1490 C   0  0  0  0  0  0  0  0  0  0  0  0
    5.6760    9.5680    0.3420 C   0  0  0  0  0  0  0  0  0  0  0  0
    4.6190    7.4420   -2.7940 S   0  0  0  0  0  0  0  0  0  0  0  0
    5.5220    9.1630   -0.9640 C   0  0  0  0  0  0  0  0  0  0  0  0
    6.3900   10.7310    0.8050 C   0  0  0  0  0  0  0  0  0  0  0  0
    5.5750    8.8700   -3.2810 C   0  0  0  0  0  0  0  0  0  0  0  0
    5.9780    9.6690   -2.2190 C   0  0  0  0  0  0  0  0  0  0  0  0
    6.9850   11.5270   -0.0630 C   0  0  0  0  0  0  0  0  0  0  0  0
    6.5280   11.1660    2.4930 S   0  0  0  0  0  0  0  0  0  0  0  0
    7.6050   12.5680    0.5920 C   0  0  0  0  0  0  0  0  0  0  0  0
    7.4670   12.5400    1.9610 C   0  0  0  0  0  0  0  0  0  0  0  0
   -1.2610   -0.4320    0.0460 H   0  0  0  0  0  0  0  0  0  0  0  0
   -0.0110    0.1810   -2.0460 H   0  0  0  0  0  0  0  0  0  0  0  0
    1.4960    2.1810   -2.0180 H   0  0  0  0  0  0  0  0  0  0  0  0
    0.3570    2.7610    2.1230 H   0  0  0  0  0  0  0  0  0  0  0  0
    1.3120    4.6530   -1.8120 H   0  0  0  0  0  0  0  0  0  0  0  0
    5.7810    9.0190   -4.3320 H   0  0  0  0  0  0  0  0  0  0  0  0
    6.5730   10.5660   -2.3390 H   0  0  0  0  0  0  0  0  0  0  0  0
    8.1390   13.3110    0.0120 H   0  0  0  0  0  0  0  0  0  0  0  0
    7.8580   13.2380    2.6880 H   0  0  0  0  0  0  0  0  0  0  0  0
  1 29  1  0  0  0  0
  1  3  2  0  0  0  0
  2  4  2  0  0  0  0
  2  1  1  0  0  0  0
  3  5  1  0  0  0  0
  4  6  1  0  0  0  0
  5 32  1  0  0  0  0
  6  7  1  0  0  0  0
  6  5  2  0  0  0  0
  7  9  1  0  0  0  0
  8  7  2  0  0  0  0
  9 11  2  0  0  0  0
 10  8  1  0  0  0  0
 10 13  2  0  0  0  0
 11 14  1  0  0  0  0
 12  9  1  0  0  0  0
 12 15  2  0  0  0  0
 13 12  1  0  0  0  0
 15 14  1  0  0  0  0
 16 13  1  1  0  0  0
 16 17  1  0  0  0  0
 18 21  2  0  0  0  0
 18 16  1  0  0  0  0
 19 22  1  0  0  0  0
 19 17  2  0  0  0  0
 20 18  1  0  0  0  0
 21 19  1  0  0  0  0
 22 26  1  0  0  0  0
 23 20  1  0  0  0  0
 23 24  2  0  0  0  0
 24 21  1  0  0  0  0
 25 27  1  0  0  0  0
 25 22  2  0  0  0  0
 27 28  2  0  0  0  0
 28 26  1  0  0  0  0
 28 37  1  0  0  0  0
 30  2  1  0  0  0  0
 31  4  1  0  0  0  0
 33  8  1  0  0  0  0
 34 23  1  0  0  0  0
 35 24  1  0  0  0  0
 36 27  1  0  0  0  0
M  END
$$$$
scan_sander_basal_param/min_pdbs/min_pdb_C271_165.pdb
 OpenBabel10021702273D

 37 42  0  0  1  0  0  0  0  0999 V2000
   -0.5610    0.3910   -0.0100 C   0  0  0  0  0  0  0  0  0  0  0  0
    0.2790    0.6430   -1.1060 C   0  0  0  0  0  0  0  0  0  0  0  0
   -0.6020    1.1890    1.0730 N   0  0  0  0  0  0  0  0  0  0  0  0
    1.1150    1.7700   -1.0760 C   0  0  0  0  0  0  0  0  0  0  0  0
    0.2050    2.2700    1.1020 C   0  0  0  0  0  0  0  0  0  0  0  0
    1.0970    2.6200    0.0560 C   0  0  0  0  0  0  0  0  0  0  0  0
    1.9580    3.8420    0.1170 C   0  0  0  0  0  0  0  0  0  0  0  0
    2.1010    4.6840   -1.0080 C   0  0  0  0  0  0  0  0  0  0  0  0
    2.6780    4.2380    1.2670 C   0  0  0  0  0  0  0  0  0  0  0  0
    2.8580    5.7990   -1.0190 N   0  0  0  0  0  0  0  0  0  0  0  0
    2.6860    3.5460    2.4240 N   0  0  0  0  0  0  0  0  0  0  0  0
    3.4610    5.3870    1.2610 C   0  0  0  0  0  0  0  0  0  0  0  0
    3.5430    6.1750    0.0840 C   0  0  0  0  0  0  0  0  0  0  0  0
    3.6700    4.3890    3.4200 S   0  0  0  0  0  0  0  0  0  0  0  0
    4.1020    5.6190    2.4310 N   0  0  0  0  0  0  0  0  0  0  0  0
    4.3440    7.4210    0.0070 C   0  0  1  0  0  0  0  0  0  0  0  0
    5.0190    8.3240    1.3820 B   0  0  0  0  0  0  0  0  0  0  0  0
    4.7000    8.0650   -1.1660 C   0  0  0  0  0  0  0  0  0  0  0  0
    5.7460    9.5390    0.3260 C   0  0  0  0  0  0  0  0  0  0  0  0
    4.3790    7.6310   -2.8290 S   0  0  0  0  0  0  0  0  0  0  0  0
    5.4660    9.2140   -0.9800 C   0  0  0  0  0  0  0  0  0  0  0  0
    6.5100   10.6680    0.7920 C   0  0  0  0  0  0  0  0  0  0  0  0
    5.2960    9.0850   -3.3070 C   0  0  0  0  0  0  0  0  0  0  0  0
    5.8040    9.8060   -2.2350 C   0  0  0  0  0  0  0  0  0  0  0  0
    7.0290   11.5170   -0.0750 C   0  0  0  0  0  0  0  0  0  0  0  0
    6.8070   10.9960    2.4850 S   0  0  0  0  0  0  0  0  0  0  0  0
    7.7150   12.5120    0.5840 C   0  0  0  0  0  0  0  0  0  0  0  0
    7.7050   12.3970    1.9550 C   0  0  0  0  0  0  0  0  0  0  0  0
   -1.2230   -0.4750    0.0010 H   0  0  0  0  0  0  0  0  0  0  0  0
    0.2800   -0.0260   -1.9610 H   0  0  0  0  0  0  0  0  0  0  0  0
    1.7770    1.9800   -1.9120 H   0  0  0  0  0  0  0  0  0  0  0  0
    0.1280    2.8930    1.9910 H   0  0  0  0  0  0  0  0  0  0  0  0
    1.5760    4.4590   -1.9370 H   0  0  0  0  0  0  0  0  0  0  0  0
    5.4020    9.3060   -4.3610 H   0  0  0  0  0  0  0  0  0  0  0  0
    6.3910   10.7080   -2.3500 H   0  0  0  0  0  0  0  0  0  0  0  0
    8.2000   13.2890    0.0050 H   0  0  0  0  0  0  0  0  0  0  0  0
    8.1670   13.0470    2.6860 H   0  0  0  0  0  0  0  0  0  0  0  0
  1 29  1  0  0  0  0
  1  3  2  0  0  0  0
  2  4  2  0  0  0  0
  2  1  1  0  0  0  0
  3  5  1  0  0  0  0
  4  6  1  0  0  0  0
  5 32  1  0  0  0  0
  6  7  1  0  0  0  0
  6  5  2  0  0  0  0
  7  9  1  0  0  0  0
  8  7  2  0  0  0  0
  9 11  2  0  0  0  0
 10  8  1  0  0  0  0
 10 13  2  0  0  0  0
 11 14  1  0  0  0  0
 12  9  1  0  0  0  0
 12 15  2  0  0  0  0
 13 12  1  0  0  0  0
 15 14  1  0  0  0  0
 16 13  1  6  0  0  0
 16 17  1  0  0  0  0
 18 21  2  0  0  0  0
 18 16  1  0  0  0  0
 19 22  1  0  0  0  0
 19 17  2  0  0  0  0
 20 18  1  0  0  0  0
 21 19  1  0  0  0  0
 22 26  1  0  0  0  0
 23 20  1  0  0  0  0
 23 24  2  0  0  0  0
 24 21  1  0  0  0  0
 25 27  1  0  0  0  0
 25 22  2  0  0  0  0
 27 28  2  0  0  0  0
 28 26  1  0  0  0  0
 28 37  1  0  0  0  0
 30  2  1  0  0  0  0
 31  4  1  0  0  0  0
 33  8  1  0  0  0  0
 34 23  1  0  0  0  0
 35 24  1  0  0  0  0
 36 27  1  0  0  0  0
M  END
$$$$
scan_sander_basal_param/min_pdbs/min_pdb_C271_180.pdb
 OpenBabel10021702273D

 37 42  0  0  1  0  0  0  0  0999 V2000
   -0.4960    0.3380   -0.0500 C   0  0  0  0  0  0  0  0  0  0  0  0
    0.4810    0.5100   -1.0440 C   0  0  0  0  0  0  0  0  0  0  0  0
   -0.6820    1.2250    0.9460 N   0  0  0  0  0  0  0  0  0  0  0  0
    1.3020    1.6490   -1.0010 C   0  0  0  0  0  0  0  0  0  0  0  0
    0.1100    2.3160    0.9870 C   0  0  0  0  0  0  0  0  0  0  0  0
    1.1310    2.5900    0.0420 C   0  0  0  0  0  0  0  0  0  0  0  0
    1.9720    3.8260    0.1100 C   0  0  0  0  0  0  0  0  0  0  0  0
    2.2590    4.5720   -1.0540 C   0  0  0  0  0  0  0  0  0  0  0  0
    2.5330    4.3290    1.3060 C   0  0  0  0  0  0  0  0  0  0  0  0
    3.0060    5.6920   -1.0600 N   0  0  0  0  0  0  0  0  0  0  0  0
    2.3850    3.7390    2.5090 N   0  0  0  0  0  0  0  0  0  0  0  0
    3.3080    5.4840    1.3050 C   0  0  0  0  0  0  0  0  0  0  0  0
    3.5410    6.1750    0.0850 C   0  0  0  0  0  0  0  0  0  0  0  0
    3.2170    4.6800    3.5530 S   0  0  0  0  0  0  0  0  0  0  0  0
    3.7760    5.8270    2.5280 N   0  0  0  0  0  0  0  0  0  0  0  0
    4.3550    7.4150    0.0000 C   0  0  2  0  0  0  0  0  0  0  0  0
    5.1580    8.2390    1.3570 B   0  0  0  0  0  0  0  0  0  0  0  0
    4.6130    8.1260   -1.1610 C   0  0  0  0  0  0  0  0  0  0  0  0
    5.8090    9.5050    0.3120 C   0  0  0  0  0  0  0  0  0  0  0  0
    4.1060    7.8260   -2.8080 S   0  0  0  0  0  0  0  0  0  0  0  0
    5.4060    9.2600   -0.9790 C   0  0  0  0  0  0  0  0  0  0  0  0
    6.6320   10.5940    0.7720 C   0  0  0  0  0  0  0  0  0  0  0  0
    5.0000    9.2950   -3.2800 C   0  0  0  0  0  0  0  0  0  0  0  0
    5.6250    9.9330   -2.2190 C   0  0  0  0  0  0  0  0  0  0  0  0
    7.0860   11.4870   -0.0880 C   0  0  0  0  0  0  0  0  0  0  0  0
    7.0850   10.8160    2.4460 S   0  0  0  0  0  0  0  0  0  0  0  0
    7.8470   12.4320    0.5630 C   0  0  0  0  0  0  0  0  0  0  0  0
    7.9570   12.2360    1.9200 C   0  0  0  0  0  0  0  0  0  0  0  0
   -1.1500   -0.5330   -0.0530 H   0  0  0  0  0  0  0  0  0  0  0  0
    0.5980   -0.2290   -1.8320 H   0  0  0  0  0  0  0  0  0  0  0  0
    2.0670    1.7980   -1.7580 H   0  0  0  0  0  0  0  0  0  0  0  0
   -0.0870    3.0110    1.8030 H   0  0  0  0  0  0  0  0  0  0  0  0
    1.8620    4.2620   -2.0200 H   0  0  0  0  0  0  0  0  0  0  0  0
    5.0020    9.5880   -4.3210 H   0  0  0  0  0  0  0  0  0  0  0  0
    6.2090   10.8380   -2.3310 H   0  0  0  0  0  0  0  0  0  0  0  0
    8.2920   13.2360   -0.0110 H   0  0  0  0  0  0  0  0  0  0  0  0
    8.4950   12.8340    2.6430 H   0  0  0  0  0  0  0  0  0  0  0  0
  1  3  2  0  0  0  0
  2  4  2  0  0  0  0
  2  1  1  0  0  0  0
  3  5  1  0  0  0  0
  4  6  1  0  0  0  0
  5 32  1  0  0  0  0
  6  7  1  0  0  0  0
  6  5  2  0  0  0  0
  7  9  1  0  0  0  0
  8  7  2  0  0  0  0
  9 11  2  0  0  0  0
 10  8  1  0  0  0  0
 10 13  2  0  0  0  0
 11 14  1  0  0  0  0
 12  9  1  0  0  0  0
 12 15  2  0  0  0  0
 13 12  1  0  0  0  0
 15 14  1  0  0  0  0
 16 13  1  1  0  0  0
 16 17  1  0  0  0  0
 18 21  2  0  0  0  0
 18 16  1  0  0  0  0
 19 22  1  0  0  0  0
 19 17  2  0  0  0  0
 20 18  1  0  0  0  0
 21 19  1  0  0  0  0
 22 26  1  0  0  0  0
 23 20  1  0  0  0  0
 23 24  2  0  0  0  0
 24 21  1  0  0  0  0
 25 27  1  0  0  0  0
 25 22  2  0  0  0  0
 27 28  2  0  0  0  0
 28 26  1  0  0  0  0
 28 37  1  0  0  0  0
 29  1  1  0  0  0  0
 30  2  1  0  0  0  0
 31  4  1  0  0  0  0
 33  8  1  0  0  0  0
 34 23  1  0  0  0  0
 35 24  1  0  0  0  0
 36 27  1  0  0  0  0
M  END
$$$$
scan_sander_basal_param/min_pdbs/min_pdb_C271_195.pdb
 OpenBabel10021702273D

 37 42  0  0  1  0  0  0  0  0999 V2000
   -0.4200    0.2930   -0.0860 C   0  0  0  0  0  0  0  0  0  0  0  0
    0.6760    0.3970   -0.9580 C   0  0  0  0  0  0  0  0  0  0  0  0
   -0.7360    1.2550    0.8010 N   0  0  0  0  0  0  0  0  0  0  0  0
    1.4800    1.5470   -0.9050 C   0  0  0  0  0  0  0  0  0  0  0  0
    0.0400    2.3580    0.8520 C   0  0  0  0  0  0  0  0  0  0  0  0
    1.1730    2.5680    0.0250 C   0  0  0  0  0  0  0  0  0  0  0  0
    1.9940    3.8180    0.0970 C   0  0  0  0  0  0  0  0  0  0  0  0
    2.4240    4.4700   -1.0790 C   0  0  0  0  0  0  0  0  0  0  0  0
    2.3940    4.4250    1.3100 C   0  0  0  0  0  0  0  0  0  0  0  0
    3.1620    5.5970   -1.0840 N   0  0  0  0  0  0  0  0  0  0  0  0
    2.0920    3.9380    2.5300 N   0  0  0  0  0  0  0  0  0  0  0  0
    3.1600    5.5850    1.3100 C   0  0  0  0  0  0  0  0  0  0  0  0
    3.5420    6.1750    0.0770 C   0  0  0  0  0  0  0  0  0  0  0  0
    2.7730    4.9810    3.5870 S   0  0  0  0  0  0  0  0  0  0  0  0
    3.4590    6.0440    2.5490 N   0  0  0  0  0  0  0  0  0  0  0  0
    4.3670    7.4040   -0.0020 C   0  0  2  0  0  0  0  0  0  0  0  0
    5.2950    8.1370    1.3260 B   0  0  0  0  0  0  0  0  0  0  0  0
    4.5240    8.1830   -1.1360 C   0  0  0  0  0  0  0  0  0  0  0  0
    5.8660    9.4580    0.3010 C   0  0  0  0  0  0  0  0  0  0  0  0
    3.8230    8.0070   -2.7280 S   0  0  0  0  0  0  0  0  0  0  0  0
    5.3410    9.2990   -0.9590 C   0  0  0  0  0  0  0  0  0  0  0  0
    6.7470   10.5080    0.7460 C   0  0  0  0  0  0  0  0  0  0  0  0
    4.6920    9.4930   -3.1950 C   0  0  0  0  0  0  0  0  0  0  0  0
    5.4370   10.0530   -2.1670 C   0  0  0  0  0  0  0  0  0  0  0  0
    7.1330   11.4470   -0.0990 C   0  0  0  0  0  0  0  0  0  0  0  0
    7.3600   10.6230    2.3800 S   0  0  0  0  0  0  0  0  0  0  0  0
    7.9670   12.3420    0.5320 C   0  0  0  0  0  0  0  0  0  0  0  0
    8.2020   12.0620    1.8590 C   0  0  0  0  0  0  0  0  0  0  0  0
   -1.0650   -0.5840   -0.1000 H   0  0  0  0  0  0  0  0  0  0  0  0
    0.8960   -0.4020   -1.6600 H   0  0  0  0  0  0  0  0  0  0  0  0
    2.3350    1.6450   -1.5680 H   0  0  0  0  0  0  0  0  0  0  0  0
   -0.2620    3.1140    1.5750 H   0  0  0  0  0  0  0  0  0  0  0  0
    2.1560    4.0750   -2.0590 H   0  0  0  0  0  0  0  0  0  0  0  0
    4.5860    9.8580   -4.2080 H   0  0  0  0  0  0  0  0  0  0  0  0
    6.0150   10.9620   -2.2790 H   0  0  0  0  0  0  0  0  0  0  0  0
    8.3690   13.1750   -0.0320 H   0  0  0  0  0  0  0  0  0  0  0  0
    8.8150   12.6100    2.5620 H   0  0  0  0  0  0  0  0  0  0  0  0
  1  3  2  0  0  0  0
  2  4  2  0  0  0  0
  2  1  1  0  0  0  0
  3  5  1  0  0  0  0
  4  6  1  0  0  0  0
  5 32  1  0  0  0  0
  6  7  1  0  0  0  0
  6  5  2  0  0  0  0
  7  9  1  0  0  0  0
  8  7  2  0  0  0  0
  9 11  2  0  0  0  0
 10  8  1  0  0  0  0
 10 13  2  0  0  0  0
 11 14  1  0  0  0  0
 12  9  1  0  0  0  0
 12 15  2  0  0  0  0
 13 12  1  0  0  0  0
 15 14  1  0  0  0  0
 16 13  1  1  0  0  0
 16 17  1  0  0  0  0
 18 21  2  0  0  0  0
 18 16  1  0  0  0  0
 19 22  1  0  0  0  0
 19 17  2  0  0  0  0
 20 18  1  0  0  0  0
 21 19  1  0  0  0  0
 22 26  1  0  0  0  0
 23 20  1  0  0  0  0
 23 24  2  0  0  0  0
 24 21  1  0  0  0  0
 25 27  1  0  0  0  0
 25 22  2  0  0  0  0
 27 28  2  0  0  0  0
 28 26  1  0  0  0  0
 28 37  1  0  0  0  0
 29  1  1  0  0  0  0
 30  2  1  0  0  0  0
 31  4  1  0  0  0  0
 33  8  1  0  0  0  0
 34 23  1  0  0  0  0
 35 24  1  0  0  0  0
 36 27  1  0  0  0  0
M  END
$$$$
scan_sander_basal_param/min_pdbs/min_pdb_C271_210.pdb
 OpenBabel10021702273D

 37 42  0  0  1  0  0  0  0  0999 V2000
   -0.3560    0.2670   -0.1170 C   0  0  0  0  0  0  0  0  0  0  0  0
    0.8410    0.3080   -0.8500 C   0  0  0  0  0  0  0  0  0  0  0  0
   -0.7790    1.2950    0.6410 N   0  0  0  0  0  0  0  0  0  0  0  0
    1.6340    1.4650   -0.7910 C   0  0  0  0  0  0  0  0  0  0  0  0
   -0.0130    2.4050    0.6990 C   0  0  0  0  0  0  0  0  0  0  0  0
    1.2150    2.5560    0.0070 C   0  0  0  0  0  0  0  0  0  0  0  0
    2.0230    3.8140    0.0790 C   0  0  0  0  0  0  0  0  0  0  0  0
    2.6000    4.3720   -1.0850 C   0  0  0  0  0  0  0  0  0  0  0  0
    2.2670    4.5190    1.2800 C   0  0  0  0  0  0  0  0  0  0  0  0
    3.3350    5.5010   -1.0920 N   0  0  0  0  0  0  0  0  0  0  0  0
    1.8150    4.1360    2.4900 N   0  0  0  0  0  0  0  0  0  0  0  0
    3.0280    5.6810    1.2810 C   0  0  0  0  0  0  0  0  0  0  0  0
    3.5570    6.1690    0.0620 C   0  0  0  0  0  0  0  0  0  0  0  0
    2.3630    5.2720    3.5310 S   0  0  0  0  0  0  0  0  0  0  0  0
    3.1760    6.2500    2.5000 N   0  0  0  0  0  0  0  0  0  0  0  0
    4.3910    7.3840   -0.0040 C   0  0  2  0  0  0  0  0  0  0  0  0
    5.4360    8.0180    1.2830 B   0  0  0  0  0  0  0  0  0  0  0  0
    4.4450    8.2280   -1.0940 C   0  0  0  0  0  0  0  0  0  0  0  0
    5.9210    9.4030    0.2920 C   0  0  0  0  0  0  0  0  0  0  0  0
    3.5790    8.1450   -2.6060 S   0  0  0  0  0  0  0  0  0  0  0  0
    5.2800    9.3280   -0.9230 C   0  0  0  0  0  0  0  0  0  0  0  0
    6.8470   10.4220    0.7160 C   0  0  0  0  0  0  0  0  0  0  0  0
    4.4100    9.6580   -3.0650 C   0  0  0  0  0  0  0  0  0  0  0  0
    5.2590   10.1560   -2.0850 C   0  0  0  0  0  0  0  0  0  0  0  0
    7.1580   11.4100   -0.1020 C   0  0  0  0  0  0  0  0  0  0  0  0
    7.6110   10.4350    2.2900 S   0  0  0  0  0  0  0  0  0  0  0  0
    8.0550   12.2640    0.5020 C   0  0  0  0  0  0  0  0  0  0  0  0
    8.4110   11.9020    1.7810 C   0  0  0  0  0  0  0  0  0  0  0  0
   -0.9970   -0.6140   -0.1400 H   0  0  0  0  0  0  0  0  0  0  0  0
    1.1460   -0.5440   -1.4510 H   0  0  0  0  0  0  0  0  0  0  0  0
    2.5670    1.5150   -1.3470 H   0  0  0  0  0  0  0  0  0  0  0  0
   -0.4020    3.2150    1.3140 H   0  0  0  0  0  0  0  0  0  0  0  0
    2.4570    3.8950   -2.0550 H   0  0  0  0  0  0  0  0  0  0  0  0
    4.2040   10.0850   -4.0380 H   0  0  0  0  0  0  0  0  0  0  0  0
    5.8270   11.0710   -2.1970 H   0  0  0  0  0  0  0  0  0  0  0  0
    8.4080   13.1290   -0.0460 H   0  0  0  0  0  0  0  0  0  0  0  0
    9.0910   12.4050    2.4540 H   0  0  0  0  0  0  0  0  0  0  0  0
  1  3  2  0  0  0  0
  2  4  2  0  0  0  0
  2  1  1  0  0  0  0
  3  5  1  0  0  0  0
  4  6  1  0  0  0  0
  5 32  1  0  0  0  0
  6  7  1  0  0  0  0
  6  5  2  0  0  0  0
  7  9  1  0  0  0  0
  8  7  2  0  0  0  0
  9 12  1  0  0  0  0
  9 11  2  0  0  0  0
 10  8  1  0  0  0  0
 10 13  2  0  0  0  0
 11 14  1  0  0  0  0
 12 15  2  0  0  0  0
 13 12  1  0  0  0  0
 15 14  1  0  0  0  0
 16 13  1  1  0  0  0
 16 17  1  0  0  0  0
 18 21  2  0  0  0  0
 18 16  1  0  0  0  0
 19 22  1  0  0  0  0
 19 17  2  0  0  0  0
 20 18  1  0  0  0  0
 21 19  1  0  0  0  0
 22 26  1  0  0  0  0
 23 20  1  0  0  0  0
 23 24  2  0  0  0  0
 24 21  1  0  0  0  0
 25 27  1  0  0  0  0
 25 22  2  0  0  0  0
 27 28  2  0  0  0  0
 28 26  1  0  0  0  0
 28 37  1  0  0  0  0
 29  1  1  0  0  0  0
 30  2  1  0  0  0  0
 31  4  1  0  0  0  0
 33  8  1  0  0  0  0
 34 23  1  0  0  0  0
 35 24  1  0  0  0  0
 36 27  1  0  0  0  0
M  END
$$$$
scan_sander_basal_param/min_pdbs/min_pdb_C271_225.pdb
 OpenBabel10021702273D

 37 42  0  0  1  0  0  0  0  0999 V2000
   -0.3070    0.2520   -0.1480 C   0  0  0  0  0  0  0  0  0  0  0  0
    0.9700    0.2380   -0.7310 C   0  0  0  0  0  0  0  0  0  0  0  0
   -0.8120    1.3360    0.4710 N   0  0  0  0  0  0  0  0  0  0  0  0
    1.7590    1.3980   -0.6660 C   0  0  0  0  0  0  0  0  0  0  0  0
   -0.0510    2.4480    0.5350 C   0  0  0  0  0  0  0  0  0  0  0  0
    1.2540    2.5470   -0.0130 C   0  0  0  0  0  0  0  0  0  0  0  0
    2.0550    3.8090    0.0590 C   0  0  0  0  0  0  0  0  0  0  0  0
    2.7740    4.2770   -1.0670 C   0  0  0  0  0  0  0  0  0  0  0  0
    2.1550    4.6060    1.2250 C   0  0  0  0  0  0  0  0  0  0  0  0
    3.5120    5.4050   -1.0740 N   0  0  0  0  0  0  0  0  0  0  0  0
    1.5610    4.3180    2.4000 N   0  0  0  0  0  0  0  0  0  0  0  0
    2.9160    5.7650    1.2270 C   0  0  0  0  0  0  0  0  0  0  0  0
    3.5850    6.1560    0.0470 C   0  0  0  0  0  0  0  0  0  0  0  0
    1.9940    5.5350    3.4050 S   0  0  0  0  0  0  0  0  0  0  0  0
    2.9320    6.4310    2.4050 N   0  0  0  0  0  0  0  0  0  0  0  0
    4.4230    7.3580   -0.0030 C   0  0  0  0  0  0  0  0  0  0  0  0
    5.5850    7.8970    1.2220 B   0  0  0  0  0  0  0  0  0  0  0  0
    4.3730    8.2670   -1.0330 C   0  0  0  0  0  0  0  0  0  0  0  0
    5.9750    9.3490    0.2810 C   0  0  2  0  0  0  0  0  0  0  0  0
    3.3690    8.2540   -2.4550 S   0  0  0  0  0  0  0  0  0  0  0  0
    5.2220    9.3530   -0.8720 C   0  0  0  0  0  0  0  0  0  0  0  0
    6.9390   10.3430    0.6790 C   0  0  0  0  0  0  0  0  0  0  0  0
    4.1510    9.8000   -2.8980 C   0  0  0  0  0  0  0  0  0  0  0  0
    5.0900   10.2480   -1.9750 C   0  0  0  0  0  0  0  0  0  0  0  0
    7.1700   11.3840   -0.1000 C   0  0  0  0  0  0  0  0  0  0  0  0
    7.8500   10.2590    2.1690 S   0  0  0  0  0  0  0  0  0  0  0  0
    8.1210   12.2010    0.4680 C   0  0  0  0  0  0  0  0  0  0  0  0
    8.5980   11.7610    1.6820 C   0  0  0  0  0  0  0  0  0  0  0  0
   -0.9470   -0.6300   -0.1800 H   0  0  0  0  0  0  0  0  0  0  0  0
    1.3400   -0.6570   -1.2220 H   0  0  0  0  0  0  0  0  0  0  0  0
    2.7520    1.4070   -1.1060 H   0  0  0  0  0  0  0  0  0  0  0  0
   -0.5060    3.3030    1.0330 H   0  0  0  0  0  0  0  0  0  0  0  0
    2.7480    3.7240   -2.0060 H   0  0  0  0  0  0  0  0  0  0  0  0
    3.8530   10.2820   -3.8200 H   0  0  0  0  0  0  0  0  0  0  0  0
    5.6450   11.1710   -2.0870 H   0  0  0  0  0  0  0  0  0  0  0  0
    8.4200   13.1020   -0.0540 H   0  0  0  0  0  0  0  0  0  0  0  0
    9.3400   12.2220    2.3180 H   0  0  0  0  0  0  0  0  0  0  0  0
  1  3  2  0  0  0  0
  2  4  2  0  0  0  0
  2  1  1  0  0  0  0
  3  5  1  0  0  0  0
  4  6  1  0  0  0  0
  5 32  1  0  0  0  0
  6  7  1  0  0  0  0
  6  5  2  0  0  0  0
  7  9  1  0  0  0  0
  8  7  2  0  0  0  0
  9 12  1  0  0  0  0
  9 11  2  0  0  0  0
 10  8  1  0  0  0  0
 10 13  2  0  0  0  0
 11 14  1  0  0  0  0
 12 15  2  0  0  0  0
 13 12  1  0  0  0  0
 15 14  1  0  0  0  0
 16 13  1  0  0  0  0
 16 17  2  0  0  0  0
 18 21  2  0  0  0  0
 18 16  1  0  0  0  0
 19 22  1  6  0  0  0
 19 17  1  0  0  0  0
 20 18  1  0  0  0  0
 21 19  1  0  0  0  0
 22 26  1  0  0  0  0
 23 20  1  0  0  0  0
 23 24  2  0  0  0  0
 24 21  1  0  0  0  0
 25 27  1  0  0  0  0
 25 22  2  0  0  0  0
 27 28  2  0  0  0  0
 28 26  1  0  0  0  0
 28 37  1  0  0  0  0
 29  1  1  0  0  0  0
 30  2  1  0  0  0  0
 31  4  1  0  0  0  0
 33  8  1  0  0  0  0
 34 23  1  0  0  0  0
 35 24  1  0  0  0  0
 36 27  1  0  0  0  0
M  END
$$$$
scan_sander_basal_param/min_pdbs/min_pdb_C271_240.pdb
 OpenBabel10021702273D

 37 42  0  0  1  0  0  0  0  0999 V2000
   -0.2650    0.2370   -0.1830 C   0  0  0  0  0  0  0  0  0  0  0  0
    1.0750    0.1800   -0.6000 C   0  0  0  0  0  0  0  0  0  0  0  0
   -0.8330    1.3650    0.2840 N   0  0  0  0  0  0  0  0  0  0  0  0
    1.8590    1.3420   -0.5260 C   0  0  0  0  0  0  0  0  0  0  0  0
   -0.0770    2.4800    0.3560 C   0  0  0  0  0  0  0  0  0  0  0  0
    1.2870    2.5380   -0.0310 C   0  0  0  0  0  0  0  0  0  0  0  0
    2.0830    3.8020    0.0430 C   0  0  0  0  0  0  0  0  0  0  0  0
    2.9410    4.1830   -1.0190 C   0  0  0  0  0  0  0  0  0  0  0  0
    2.0430    4.6860    1.1480 C   0  0  0  0  0  0  0  0  0  0  0  0
    3.6840    5.3090   -1.0210 N   0  0  0  0  0  0  0  0  0  0  0  0
    1.3100    4.4900    2.2620 N   0  0  0  0  0  0  0  0  0  0  0  0
    2.8060    5.8430    1.1540 C   0  0  0  0  0  0  0  0  0  0  0  0
    3.6160    6.1400    0.0410 C   0  0  0  0  0  0  0  0  0  0  0  0
    1.6320    5.7820    3.2150 S   0  0  0  0  0  0  0  0  0  0  0  0
    2.6930    6.5970    2.2710 N   0  0  0  0  0  0  0  0  0  0  0  0
    4.4560    7.3340    0.0030 C   0  0  0  0  0  0  0  0  0  0  0  0
    5.7280    7.7890    1.1450 B   0  0  0  0  0  0  0  0  0  0  0  0
    4.3090    8.3020   -0.9560 C   0  0  0  0  0  0  0  0  0  0  0  0
    6.0300    9.3020    0.2650 C   0  0  2  0  0  0  0  0  0  0  0  0
    3.1850    8.3520   -2.2810 S   0  0  0  0  0  0  0  0  0  0  0  0
    5.1730    9.3770   -0.8100 C   0  0  0  0  0  0  0  0  0  0  0  0
    7.0280   10.2740    0.6330 C   0  0  0  0  0  0  0  0  0  0  0  0
    3.9210    9.9290   -2.7010 C   0  0  0  0  0  0  0  0  0  0  0  0
    4.9400   10.3310   -1.8440 C   0  0  0  0  0  0  0  0  0  0  0  0
    7.1840   11.3620   -0.0980 C   0  0  0  0  0  0  0  0  0  0  0  0
    8.0760   10.1020    2.0220 S   0  0  0  0  0  0  0  0  0  0  0  0
    8.1850   12.1480    0.4280 C   0  0  0  0  0  0  0  0  0  0  0  0
    8.7750   11.6350    1.5610 C   0  0  0  0  0  0  0  0  0  0  0  0
   -0.9030   -0.6450   -0.2260 H   0  0  0  0  0  0  0  0  0  0  0  0
    1.4940   -0.7500   -0.9710 H   0  0  0  0  0  0  0  0  0  0  0  0
    2.8990    1.3180   -0.8400 H   0  0  0  0  0  0  0  0  0  0  0  0
   -0.5820    3.3700    0.7280 H   0  0  0  0  0  0  0  0  0  0  0  0
    3.0270    3.5580   -1.9080 H   0  0  0  0  0  0  0  0  0  0  0  0
    3.5410   10.4580   -3.5650 H   0  0  0  0  0  0  0  0  0  0  0  0
    5.4840   11.2610   -1.9550 H   0  0  0  0  0  0  0  0  0  0  0  0
    8.4330   13.0810   -0.0630 H   0  0  0  0  0  0  0  0  0  0  0  0
    9.5740   12.0600    2.1510 H   0  0  0  0  0  0  0  0  0  0  0  0
  1  3  2  0  0  0  0
  2  4  2  0  0  0  0
  2  1  1  0  0  0  0
  3  5  1  0  0  0  0
  4  6  1  0  0  0  0
  5 32  1  0  0  0  0
  6  7  1  0  0  0  0
  6  5  2  0  0  0  0
  7  9  1  0  0  0  0
  8  7  2  0  0  0  0
  9 12  1  0  0  0  0
  9 11  2  0  0  0  0
 10  8  1  0  0  0  0
 10 13  2  0  0  0  0
 11 14  1  0  0  0  0
 12 15  2  0  0  0  0
 13 12  1  0  0  0  0
 15 14  1  0  0  0  0
 16 13  1  0  0  0  0
 16 17  2  0  0  0  0
 18 21  2  0  0  0  0
 18 16  1  0  0  0  0
 19 22  1  6  0  0  0
 19 17  1  0  0  0  0
 20 18  1  0  0  0  0
 21 19  1  0  0  0  0
 22 26  1  0  0  0  0
 23 20  1  0  0  0  0
 23 24  2  0  0  0  0
 24 21  1  0  0  0  0
 25 27  1  0  0  0  0
 25 22  2  0  0  0  0
 27 28  2  0  0  0  0
 28 26  1  0  0  0  0
 28 37  1  0  0  0  0
 29  1  1  0  0  0  0
 30  2  1  0  0  0  0
 31  4  1  0  0  0  0
 33  8  1  0  0  0  0
 34 23  1  0  0  0  0
 35 24  1  0  0  0  0
 36 27  1  0  0  0  0
M  END
$$$$
scan_sander_basal_param/min_pdbs/min_pdb_C271_255.pdb
 OpenBabel10021702273D

 37 42  0  0  1  0  0  0  0  0999 V2000
   -0.2220    0.2160   -0.2170 C   0  0  0  0  0  0  0  0  0  0  0  0
    1.1590    0.1300   -0.4570 C   0  0  0  0  0  0  0  0  0  0  0  0
   -0.8360    1.3750    0.0870 N   0  0  0  0  0  0  0  0  0  0  0  0
    1.9370    1.2960   -0.3750 C   0  0  0  0  0  0  0  0  0  0  0  0
   -0.0860    2.4930    0.1690 C   0  0  0  0  0  0  0  0  0  0  0  0
    1.3160    2.5240   -0.0480 C   0  0  0  0  0  0  0  0  0  0  0  0
    2.1060    3.7930    0.0290 C   0  0  0  0  0  0  0  0  0  0  0  0
    3.0920    4.0930   -0.9430 C   0  0  0  0  0  0  0  0  0  0  0  0
    1.9340    4.7580    1.0500 C   0  0  0  0  0  0  0  0  0  0  0  0
    3.8380    5.2180   -0.9380 N   0  0  0  0  0  0  0  0  0  0  0  0
    1.0660    4.6470    2.0760 N   0  0  0  0  0  0  0  0  0  0  0  0
    2.6980    5.9140    1.0640 C   0  0  0  0  0  0  0  0  0  0  0  0
    3.6430    6.1240    0.0420 C   0  0  0  0  0  0  0  0  0  0  0  0
    1.2780    6.0090    2.9600 S   0  0  0  0  0  0  0  0  0  0  0  0
    2.4540    6.7520    2.0950 N   0  0  0  0  0  0  0  0  0  0  0  0
    4.4830    7.3150    0.0130 C   0  0  0  0  0  0  0  0  0  0  0  0
    5.8610    7.6940    1.0530 B   0  0  0  0  0  0  0  0  0  0  0  0
    4.2510    8.3380   -0.8650 C   0  0  0  0  0  0  0  0  0  0  0  0
    6.0850    9.2610    0.2450 C   0  0  2  0  0  0  0  0  0  0  0  0
    3.0130    8.4570   -2.0780 S   0  0  0  0  0  0  0  0  0  0  0  0
    5.1290    9.4020   -0.7380 C   0  0  0  0  0  0  0  0  0  0  0  0
    7.1160   10.2100    0.5760 C   0  0  0  0  0  0  0  0  0  0  0  0
    3.7100   10.0590   -2.4700 C   0  0  0  0  0  0  0  0  0  0  0  0
    4.8050   10.4140   -1.6890 C   0  0  0  0  0  0  0  0  0  0  0  0
    7.2060   11.3420   -0.0980 C   0  0  0  0  0  0  0  0  0  0  0  0
    8.2920    9.9550    1.8450 S   0  0  0  0  0  0  0  0  0  0  0  0
    8.2550   12.0970    0.3780 C   0  0  0  0  0  0  0  0  0  0  0  0
    8.9480   11.5160    1.4160 C   0  0  0  0  0  0  0  0  0  0  0  0
   -0.8560   -0.6690   -0.2730 H   0  0  0  0  0  0  0  0  0  0  0  0
    1.6150   -0.8250   -0.7010 H   0  0  0  0  0  0  0  0  0  0  0  0
    3.0080    1.2500   -0.5530 H   0  0  0  0  0  0  0  0  0  0  0  0
   -0.6270    3.4080    0.4060 H   0  0  0  0  0  0  0  0  0  0  0  0
    3.2840    3.4030   -1.7650 H   0  0  0  0  0  0  0  0  0  0  0  0
    3.2540   10.6370   -3.2630 H   0  0  0  0  0  0  0  0  0  0  0  0
    5.3410   11.3500   -1.7960 H   0  0  0  0  0  0  0  0  0  0  0  0
    8.4590   13.0590   -0.0750 H   0  0  0  0  0  0  0  0  0  0  0  0
    9.8020   11.9050    1.9530 H   0  0  0  0  0  0  0  0  0  0  0  0
  1  3  2  0  0  0  0
  2  4  2  0  0  0  0
  2  1  1  0  0  0  0
  3  5  1  0  0  0  0
  4  6  1  0  0  0  0
  5 32  1  0  0  0  0
  6  7  1  0  0  0  0
  6  5  2  0  0  0  0
  7  9  1  0  0  0  0
  8 10  1  0  0  0  0
  8  7  2  0  0  0  0
  9 12  1  0  0  0  0
  9 11  2  0  0  0  0
 10 13  2  0  0  0  0
 11 14  1  0  0  0  0
 12 15  2  0  0  0  0
 13 12  1  0  0  0  0
 15 14  1  0  0  0  0
 16 13  1  0  0  0  0
 16 17  2  0  0  0  0
 18 21  2  0  0  0  0
 18 16  1  0  0  0  0
 19 22  1  6  0  0  0
 19 17  1  0  0  0  0
 20 18  1  0  0  0  0
 21 19  1  0  0  0  0
 22 26  1  0  0  0  0
 23 20  1  0  0  0  0
 23 24  2  0  0  0  0
 24 21  1  0  0  0  0
 25 27  1  0  0  0  0
 25 22  2  0  0  0  0
 27 28  2  0  0  0  0
 28 26  1  0  0  0  0
 28 37  1  0  0  0  0
 29  1  1  0  0  0  0
 30  2  1  0  0  0  0
 31  4  1  0  0  0  0
 33  8  1  0  0  0  0
 34 23  1  0  0  0  0
 35 24  1  0  0  0  0
 36 27  1  0  0  0  0
M  END
$$$$
scan_sander_basal_param/min_pdbs/min_pdb_C271_270.pdb
 OpenBabel10021702273D

 37 42  0  0  1  0  0  0  0  0999 V2000
   -0.1750    0.1870   -0.2390 C   0  0  0  0  0  0  0  0  0  0  0  0
    1.2250    0.0880   -0.2930 C   0  0  0  0  0  0  0  0  0  0  0  0
   -0.8160    1.3640   -0.1090 N   0  0  0  0  0  0  0  0  0  0  0  0
    1.9920    1.2610   -0.2050 C   0  0  0  0  0  0  0  0  0  0  0  0
   -0.0760    2.4890   -0.0220 C   0  0  0  0  0  0  0  0  0  0  0  0
    1.3420    2.5090   -0.0590 C   0  0  0  0  0  0  0  0  0  0  0  0
    2.1230    3.7830    0.0160 C   0  0  0  0  0  0  0  0  0  0  0  0
    3.2280    4.0080   -0.8420 C   0  0  0  0  0  0  0  0  0  0  0  0
    1.8280    4.8250    0.9270 C   0  0  0  0  0  0  0  0  0  0  0  0
    3.9750    5.1330   -0.8310 N   0  0  0  0  0  0  0  0  0  0  0  0
    0.8340    4.7950    1.8370 N   0  0  0  0  0  0  0  0  0  0  0  0
    2.5910    5.9810    0.9460 C   0  0  0  0  0  0  0  0  0  0  0  0
    3.6630    6.1120    0.0430 C   0  0  0  0  0  0  0  0  0  0  0  0
    0.9390    6.2250    2.6290 S   0  0  0  0  0  0  0  0  0  0  0  0
    2.2200    6.9000    1.8650 N   0  0  0  0  0  0  0  0  0  0  0  0
    4.5030    7.3010    0.0180 C   0  0  0  0  0  0  0  0  0  0  0  0
    5.9740    7.6120    0.9470 B   0  0  0  0  0  0  0  0  0  0  0  0
    4.2000    8.3760   -0.7720 C   0  0  0  0  0  0  0  0  0  0  0  0
    6.1340    9.2250    0.2180 C   0  0  2  0  0  0  0  0  0  0  0  0
    2.8590    8.5660   -1.8590 S   0  0  0  0  0  0  0  0  0  0  0  0
    5.0940    9.4280   -0.6620 C   0  0  0  0  0  0  0  0  0  0  0  0
    7.1970   10.1520    0.5110 C   0  0  0  0  0  0  0  0  0  0  0  0
    3.5280   10.1880   -2.2170 C   0  0  0  0  0  0  0  0  0  0  0  0
    4.6920   10.4950   -1.5180 C   0  0  0  0  0  0  0  0  0  0  0  0
    7.2330   11.3220   -0.0980 C   0  0  0  0  0  0  0  0  0  0  0  0
    8.4820    9.8170    1.6490 S   0  0  0  0  0  0  0  0  0  0  0  0
    8.3260   12.0450    0.3260 C   0  0  0  0  0  0  0  0  0  0  0  0
    9.1070   11.4010    1.2570 C   0  0  0  0  0  0  0  0  0  0  0  0
   -0.8020   -0.7010   -0.3050 H   0  0  0  0  0  0  0  0  0  0  0  0
    1.7020   -0.8810   -0.4000 H   0  0  0  0  0  0  0  0  0  0  0  0
    3.0770    1.2050   -0.2400 H   0  0  0  0  0  0  0  0  0  0  0  0
   -0.6380    3.4170    0.0700 H   0  0  0  0  0  0  0  0  0  0  0  0
    3.5180    3.2560   -1.5750 H   0  0  0  0  0  0  0  0  0  0  0  0
    3.0060   10.8130   -2.9300 H   0  0  0  0  0  0  0  0  0  0  0  0
    5.2220   11.4350   -1.6180 H   0  0  0  0  0  0  0  0  0  0  0  0
    8.4940   13.0330   -0.0850 H   0  0  0  0  0  0  0  0  0  0  0  0
   10.0090   11.7560    1.7370 H   0  0  0  0  0  0  0  0  0  0  0  0
  1  3  1  0  0  0  0
  2  1  2  0  0  0  0
  2  4  1  0  0  0  0
  3  5  2  0  0  0  0
  4  6  2  0  0  0  0
  5 32  1  0  0  0  0
  6  5  1  0  0  0  0
  6  7  1  0  0  0  0
  7  9  1  0  0  0  0
  8 10  1  0  0  0  0
  8  7  2  0  0  0  0
  9 12  1  0  0  0  0
  9 11  2  0  0  0  0
 10 13  2  0  0  0  0
 11 14  1  0  0  0  0
 12 15  2  0  0  0  0
 13 12  1  0  0  0  0
 15 14  1  0  0  0  0
 16 13  1  0  0  0  0
 16 17  2  0  0  0  0
 18 21  2  0  0  0  0
 18 16  1  0  0  0  0
 19 22  1  6  0  0  0
 19 17  1  0  0  0  0
 20 18  1  0  0  0  0
 21 19  1  0  0  0  0
 22 26  1  0  0  0  0
 23 20  1  0  0  0  0
 23 24  2  0  0  0  0
 24 21  1  0  0  0  0
 25 27  1  0  0  0  0
 25 22  2  0  0  0  0
 27 28  2  0  0  0  0
 28 26  1  0  0  0  0
 28 37  1  0  0  0  0
 29  1  1  0  0  0  0
 30  2  1  0  0  0  0
 31  4  1  0  0  0  0
 33  8  1  0  0  0  0
 34 23  1  0  0  0  0
 35 24  1  0  0  0  0
 36 27  1  0  0  0  0
M  END
$$$$
scan_sander_basal_param/min_pdbs/min_pdb_C271_285.pdb
 OpenBabel10021702273D

 37 42  0  0  1  0  0  0  0  0999 V2000
   -0.1210    0.1500   -0.2500 C   0  0  0  0  0  0  0  0  0  0  0  0
    1.2740    0.0580   -0.1180 C   0  0  0  0  0  0  0  0  0  0  0  0
   -0.7700    1.3290   -0.2970 N   0  0  0  0  0  0  0  0  0  0  0  0
    2.0270    1.2390   -0.0290 C   0  0  0  0  0  0  0  0  0  0  0  0
   -0.0440    2.4620   -0.2070 C   0  0  0  0  0  0  0  0  0  0  0  0
    1.3670    2.4900   -0.0670 C   0  0  0  0  0  0  0  0  0  0  0  0
    2.1360    3.7720    0.0040 C   0  0  0  0  0  0  0  0  0  0  0  0
    3.3410    3.9370   -0.7240 C   0  0  0  0  0  0  0  0  0  0  0  0
    1.7300    4.8820    0.7830 C   0  0  0  0  0  0  0  0  0  0  0  0
    4.0830    5.0640   -0.7090 N   0  0  0  0  0  0  0  0  0  0  0  0
    0.6300    4.9160    1.5600 N   0  0  0  0  0  0  0  0  0  0  0  0
    2.4880    6.0420    0.8050 C   0  0  0  0  0  0  0  0  0  0  0  0
    3.6670    6.1070    0.0380 C   0  0  0  0  0  0  0  0  0  0  0  0
    0.6380    6.4040    2.2440 S   0  0  0  0  0  0  0  0  0  0  0  0
    2.0050    7.0280    1.5940 N   0  0  0  0  0  0  0  0  0  0  0  0
    4.5090    7.2960    0.0140 C   0  0  0  0  0  0  0  0  0  0  0  0
    6.0630    7.5400    0.8220 B   0  0  0  0  0  0  0  0  0  0  0  0
    4.1470    8.4210   -0.6760 C   0  0  0  0  0  0  0  0  0  0  0  0
    6.1730    9.1960    0.1860 C   0  0  2  0  0  0  0  0  0  0  0  0
    2.7200    8.6870   -1.6300 S   0  0  0  0  0  0  0  0  0  0  0  0
    5.0600    9.4590   -0.5820 C   0  0  0  0  0  0  0  0  0  0  0  0
    7.2680   10.0960    0.4400 C   0  0  0  0  0  0  0  0  0  0  0  0
    3.3730   10.3250   -1.9430 C   0  0  0  0  0  0  0  0  0  0  0  0
    4.5960   10.5810   -1.3320 C   0  0  0  0  0  0  0  0  0  0  0  0
    7.2610   11.3040   -0.0940 C   0  0  0  0  0  0  0  0  0  0  0  0
    8.6470    9.6830    1.4330 S   0  0  0  0  0  0  0  0  0  0  0  0
    8.3960   11.9920    0.2740 C   0  0  0  0  0  0  0  0  0  0  0  0
    9.2510   11.2850    1.0880 C   0  0  0  0  0  0  0  0  0  0  0  0
   -0.7370   -0.7460   -0.3220 H   0  0  0  0  0  0  0  0  0  0  0  0
    1.7590   -0.9130   -0.0860 H   0  0  0  0  0  0  0  0  0  0  0  0
    3.1080    1.1900    0.0780 H   0  0  0  0  0  0  0  0  0  0  0  0
   -0.6110    3.3910   -0.2620 H   0  0  0  0  0  0  0  0  0  0  0  0
    3.7190    3.1310   -1.3520 H   0  0  0  0  0  0  0  0  0  0  0  0
    2.7980   10.9960   -2.5670 H   0  0  0  0  0  0  0  0  0  0  0  0
    5.1270   11.5210   -1.4200 H   0  0  0  0  0  0  0  0  0  0  0  0
    8.5370   13.0040   -0.0870 H   0  0  0  0  0  0  0  0  0  0  0  0
   10.1960   11.6040    1.5060 H   0  0  0  0  0  0  0  0  0  0  0  0
  1  2  1  0  0  0  0
  2 30  1  0  0  0  0
  2  4  2  0  0  0  0
  3  1  2  0  0  0  0
  3  5  1  0  0  0  0
  4 31  1  0  0  0  0
  5  6  2  0  0  0  0
  6  4  1  0  0  0  0
  6  7  1  0  0  0  0
  7  9  1  0  0  0  0
  8 10  1  0  0  0  0
  8  7  2  0  0  0  0
  9 12  1  0  0  0  0
  9 11  2  0  0  0  0
 10 13  2  0  0  0  0
 11 14  1  0  0  0  0
 12 15  2  0  0  0  0
 13 12  1  0  0  0  0
 15 14  1  0  0  0  0
 16 13  1  0  0  0  0
 16 17  2  0  0  0  0
 18 21  2  0  0  0  0
 18 16  1  0  0  0  0
 19 22  1  6  0  0  0
 19 17  1  0  0  0  0
 20 18  1  0  0  0  0
 21 19  1  0  0  0  0
 22 26  1  0  0  0  0
 23 20  1  0  0  0  0
 23 24  2  0  0  0  0
 24 21  1  0  0  0  0
 25 27  1  0  0  0  0
 25 22  2  0  0  0  0
 27 28  2  0  0  0  0
 28 26  1  0  0  0  0
 28 37  1  0  0  0  0
 29  1  1  0  0  0  0
 32  5  1  0  0  0  0
 33  8  1  0  0  0  0
 34 23  1  0  0  0  0
 35 24  1  0  0  0  0
 36 27  1  0  0  0  0
M  END
$$$$
scan_sander_basal_param/min_pdbs/min_pdb_C271_300.pdb
 OpenBabel10021702273D

 37 42  0  0  1  0  0  0  0  0999 V2000
   -0.0450    0.0970   -0.2570 C   0  0  0  0  0  0  0  0  0  0  0  0
    1.3230    0.0370    0.0530 C   0  0  0  0  0  0  0  0  0  0  0  0
   -0.6910    1.2580   -0.4740 N   0  0  0  0  0  0  0  0  0  0  0  0
    2.0520    1.2340    0.1450 C   0  0  0  0  0  0  0  0  0  0  0  0
    0.0110    2.4070   -0.3820 C   0  0  0  0  0  0  0  0  0  0  0  0
    1.3930    2.4670   -0.0700 C   0  0  0  0  0  0  0  0  0  0  0  0
    2.1390    3.7630   -0.0020 C   0  0  0  0  0  0  0  0  0  0  0  0
    3.4230    3.8920   -0.5840 C   0  0  0  0  0  0  0  0  0  0  0  0
    1.6320    4.9220    0.6340 C   0  0  0  0  0  0  0  0  0  0  0  0
    4.1500    5.0290   -0.5640 N   0  0  0  0  0  0  0  0  0  0  0  0
    0.4460    4.9900    1.2710 N   0  0  0  0  0  0  0  0  0  0  0  0
    2.3710    6.0940    0.6590 C   0  0  0  0  0  0  0  0  0  0  0  0
    3.6380    6.1230    0.0380 C   0  0  0  0  0  0  0  0  0  0  0  0
    0.3600    6.5200    1.8480 S   0  0  0  0  0  0  0  0  0  0  0  0
    1.7890    7.1190    1.3210 N   0  0  0  0  0  0  0  0  0  0  0  0
    4.4810    7.3150    0.0070 C   0  0  0  0  0  0  0  0  0  0  0  0
    6.1070    7.4850    0.6820 B   0  0  0  0  0  0  0  0  0  0  0  0
    4.0800    8.4910   -0.5730 C   0  0  0  0  0  0  0  0  0  0  0  0
    6.1930    9.1770    0.1490 C   0  0  2  0  0  0  0  0  0  0  0  0
    2.6010    8.8360   -1.4190 S   0  0  0  0  0  0  0  0  0  0  0  0
    5.0230    9.5050   -0.4990 C   0  0  0  0  0  0  0  0  0  0  0  0
    7.3240   10.0430    0.3640 C   0  0  0  0  0  0  0  0  0  0  0  0
    3.2590   10.4800   -1.6780 C   0  0  0  0  0  0  0  0  0  0  0  0
    4.5290   10.6770   -1.1470 C   0  0  0  0  0  0  0  0  0  0  0  0
    7.2950   11.2840   -0.0860 C   0  0  0  0  0  0  0  0  0  0  0  0
    8.7750    9.5440    1.2030 S   0  0  0  0  0  0  0  0  0  0  0  0
    8.4710   11.9290    0.2260 C   0  0  0  0  0  0  0  0  0  0  0  0
    9.3790   11.1570    0.9130 C   0  0  0  0  0  0  0  0  0  0  0  0
   -0.6420   -0.8110   -0.3370 H   0  0  0  0  0  0  0  0  0  0  0  0
    1.8060   -0.9210    0.2200 H   0  0  0  0  0  0  0  0  0  0  0  0
    3.1100    1.2100    0.3890 H   0  0  0  0  0  0  0  0  0  0  0  0
   -0.5500    3.3200   -0.5780 H   0  0  0  0  0  0  0  0  0  0  0  0
    3.8830    3.0480   -1.0970 H   0  0  0  0  0  0  0  0  0  0  0  0
    2.6550   11.1960   -2.2200 H   0  0  0  0  0  0  0  0  0  0  0  0
    5.0740   11.6100   -1.2250 H   0  0  0  0  0  0  0  0  0  0  0  0
    8.6010   12.9610   -0.0780 H   0  0  0  0  0  0  0  0  0  0  0  0
   10.3630   11.4340    1.2670 H   0  0  0  0  0  0  0  0  0  0  0  0
  1  2  2  0  0  0  0
  2  4  1  0  0  0  0
  2 30  1  0  0  0  0
  3  5  2  0  0  0  0
  3  1  1  0  0  0  0
  4 31  1  0  0  0  0
  5  6  1  0  0  0  0
  6  7  1  0  0  0  0
  6  4  2  0  0  0  0
  7  9  1  0  0  0  0
  8 10  1  0  0  0  0
  8  7  2  0  0  0  0
  9 12  1  0  0  0  0
  9 11  2  0  0  0  0
 10 13  2  0  0  0  0
 11 14  1  0  0  0  0
 12 15  2  0  0  0  0
 13 12  1  0  0  0  0
 15 14  1  0  0  0  0
 16 13  1  0  0  0  0
 16 17  2  0  0  0  0
 18 21  2  0  0  0  0
 18 16  1  0  0  0  0
 19 22  1  6  0  0  0
 19 17  1  0  0  0  0
 20 18  1  0  0  0  0
 21 19  1  0  0  0  0
 22 26  1  0  0  0  0
 23 20  1  0  0  0  0
 23 24  2  0  0  0  0
 24 21  1  0  0  0  0
 25 27  1  0  0  0  0
 25 22  2  0  0  0  0
 27 28  2  0  0  0  0
 28 26  1  0  0  0  0
 28 37  1  0  0  0  0
 29  1  1  0  0  0  0
 32  5  1  0  0  0  0
 33  8  1  0  0  0  0
 34 23  1  0  0  0  0
 35 24  1  0  0  0  0
 36 27  1  0  0  0  0
M  END
$$$$
scan_sander_basal_param/min_pdbs/min_pdb_C271_315.pdb
 OpenBabel10021702273D

 37 42  0  0  1  0  0  0  0  0999 V2000
    0.0680    0.0230   -0.2650 C   0  0  0  0  0  0  0  0  0  0  0  0
    1.3860    0.0230    0.2170 C   0  0  0  0  0  0  0  0  0  0  0  0
   -0.5680    1.1480   -0.6430 N   0  0  0  0  0  0  0  0  0  0  0  0
    2.0740    1.2440    0.3150 C   0  0  0  0  0  0  0  0  0  0  0  0
    0.0940    2.3200   -0.5460 C   0  0  0  0  0  0  0  0  0  0  0  0
    1.4240    2.4410   -0.0680 C   0  0  0  0  0  0  0  0  0  0  0  0
    2.1280    3.7590    0.0010 C   0  0  0  0  0  0  0  0  0  0  0  0
    3.4730    3.8860   -0.4230 C   0  0  0  0  0  0  0  0  0  0  0  0
    1.5230    4.9430    0.4840 C   0  0  0  0  0  0  0  0  0  0  0  0
    4.1640    5.0430   -0.3960 N   0  0  0  0  0  0  0  0  0  0  0  0
    0.2720    5.0080    0.9810 N   0  0  0  0  0  0  0  0  0  0  0  0
    2.2250    6.1400    0.5110 C   0  0  0  0  0  0  0  0  0  0  0  0
    3.5610    6.1670    0.0460 C   0  0  0  0  0  0  0  0  0  0  0  0
    0.0830    6.5600    1.4610 S   0  0  0  0  0  0  0  0  0  0  0  0
    1.5480    7.1720    1.0650 N   0  0  0  0  0  0  0  0  0  0  0  0
    4.4050    7.3650   -0.0030 C   0  0  0  0  0  0  0  0  0  0  0  0
    6.0920    7.4490    0.5270 B   0  0  0  0  0  0  0  0  0  0  0  0
    3.9950    8.5930   -0.4670 C   0  0  0  0  0  0  0  0  0  0  0  0
    6.1890    9.1690    0.1060 C   0  0  2  0  0  0  0  0  0  0  0  0
    2.5000    9.0350   -1.2440 S   0  0  0  0  0  0  0  0  0  0  0  0
    4.9820    9.5710   -0.4180 C   0  0  0  0  0  0  0  0  0  0  0  0
    7.3620    9.9850    0.2870 C   0  0  0  0  0  0  0  0  0  0  0  0
    3.1940   10.6700   -1.4420 C   0  0  0  0  0  0  0  0  0  0  0  0
    4.4970   10.7920   -0.9760 C   0  0  0  0  0  0  0  0  0  0  0  0
    7.3410   11.2560   -0.0720 C   0  0  0  0  0  0  0  0  0  0  0  0
    8.8580    9.3860    0.9690 S   0  0  0  0  0  0  0  0  0  0  0  0
    8.5590   11.8430    0.1860 C   0  0  0  0  0  0  0  0  0  0  0  0
    9.4920   10.9980    0.7420 C   0  0  0  0  0  0  0  0  0  0  0  0
   -0.4960   -0.9050   -0.3550 H   0  0  0  0  0  0  0  0  0  0  0  0
    1.8630   -0.9070    0.5110 H   0  0  0  0  0  0  0  0  0  0  0  0
    3.0930    1.2670    0.6910 H   0  0  0  0  0  0  0  0  0  0  0  0
   -0.4560    3.2010   -0.8730 H   0  0  0  0  0  0  0  0  0  0  0  0
    4.0130    3.0220   -0.8090 H   0  0  0  0  0  0  0  0  0  0  0  0
    2.5890   11.4330   -1.9130 H   0  0  0  0  0  0  0  0  0  0  0  0
    5.0740   11.7060   -1.0470 H   0  0  0  0  0  0  0  0  0  0  0  0
    8.7000   12.8900   -0.0550 H   0  0  0  0  0  0  0  0  0  0  0  0
   10.5100   11.2210    1.0320 H   0  0  0  0  0  0  0  0  0  0  0  0
  1  2  2  0  0  0  0
  2  4  1  0  0  0  0
  2 30  1  0  0  0  0
  3  5  2  0  0  0  0
  3  1  1  0  0  0  0
  4 31  1  0  0  0  0
  5  6  1  0  0  0  0
  6  7  1  0  0  0  0
  6  4  2  0  0  0  0
  7  9  1  0  0  0  0
  8 10  1  0  0  0  0
  8  7  2  0  0  0  0
  9 12  1  0  0  0  0
  9 11  2  0  0  0  0
 10 13  2  0  0  0  0
 11 14  1  0  0  0  0
 12 15  2  0  0  0  0
 13 12  1  0  0  0  0
 15 14  1  0  0  0  0
 16 13  1  0  0  0  0
 16 17  2  0  0  0  0
 18 21  2  0  0  0  0
 18 16  1  0  0  0  0
 19 22  1  6  0  0  0
 19 17  1  0  0  0  0
 20 18  1  0  0  0  0
 21 19  1  0  0  0  0
 22 26  1  0  0  0  0
 23 20  1  0  0  0  0
 23 24  2  0  0  0  0
 24 21  1  0  0  0  0
 25 27  1  0  0  0  0
 25 22  2  0  0  0  0
 27 28  2  0  0  0  0
 28 26  1  0  0  0  0
 28 37  1  0  0  0  0
 29  1  1  0  0  0  0
 32  5  1  0  0  0  0
 33  8  1  0  0  0  0
 34 23  1  0  0  0  0
 35 24  1  0  0  0  0
 36 27  1  0  0  0  0
M  END
$$$$
scan_sander_basal_param/min_pdbs/min_pdb_C271_330.pdb
 OpenBabel10021702273D

 37 42  0  0  1  0  0  0  0  0999 V2000
    0.2150   -0.0640   -0.2550 C   0  0  0  0  0  0  0  0  0  0  0  0
    1.4620    0.0200    0.3850 C   0  0  0  0  0  0  0  0  0  0  0  0
   -0.4030    1.0080   -0.7860 N   0  0  0  0  0  0  0  0  0  0  0  0
    2.0930    1.2700    0.4810 C   0  0  0  0  0  0  0  0  0  0  0  0
    0.2040    2.2080   -0.6900 C   0  0  0  0  0  0  0  0  0  0  0  0
    1.4590    2.4130   -0.0620 C   0  0  0  0  0  0  0  0  0  0  0  0
    2.1090    3.7600    0.0000 C   0  0  0  0  0  0  0  0  0  0  0  0
    3.4890    3.9120   -0.2630 C   0  0  0  0  0  0  0  0  0  0  0  0
    1.4130    4.9480    0.3210 C   0  0  0  0  0  0  0  0  0  0  0  0
    4.1310    5.0960   -0.2360 N   0  0  0  0  0  0  0  0  0  0  0  0
    0.1130    4.9830    0.6730 N   0  0  0  0  0  0  0  0  0  0  0  0
    2.0660    6.1760    0.3440 C   0  0  0  0  0  0  0  0  0  0  0  0
    3.4490    6.2320    0.0350 C   0  0  0  0  0  0  0  0  0  0  0  0
   -0.1870    6.5470    1.0420 S   0  0  0  0  0  0  0  0  0  0  0  0
    1.2900    7.1960    0.7760 N   0  0  0  0  0  0  0  0  0  0  0  0
    4.2980    7.4350   -0.0300 C   0  0  2  0  0  0  0  0  0  0  0  0
    6.0330    7.4260    0.3450 B   0  0  0  0  0  0  0  0  0  0  0  0
    3.9070    8.7150   -0.3710 C   0  0  0  0  0  0  0  0  0  0  0  0
    6.1690    9.1650    0.0530 C   0  0  0  0  0  0  0  0  0  0  0  0
    2.4050    9.2810   -1.0560 S   0  0  0  0  0  0  0  0  0  0  0  0
    4.9420    9.6470   -0.3410 C   0  0  0  0  0  0  0  0  0  0  0  0
    7.3870    9.9200    0.2030 C   0  0  0  0  0  0  0  0  0  0  0  0
    3.1560   10.8950   -1.1800 C   0  0  0  0  0  0  0  0  0  0  0  0
    4.4870   10.9240   -0.7890 C   0  0  0  0  0  0  0  0  0  0  0  0
    7.3960   11.2150   -0.0530 C   0  0  0  0  0  0  0  0  0  0  0  0
    8.9020    9.2110    0.7150 S   0  0  0  0  0  0  0  0  0  0  0  0
    8.6550   11.7330    0.1530 C   0  0  0  0  0  0  0  0  0  0  0  0
    9.5890   10.8100    0.5660 C   0  0  0  0  0  0  0  0  0  0  0  0
   -0.3040   -1.0180   -0.3470 H   0  0  0  0  0  0  0  0  0  0  0  0
    1.9260   -0.8700    0.8000 H   0  0  0  0  0  0  0  0  0  0  0  0
    3.0560    1.3570    0.9770 H   0  0  0  0  0  0  0  0  0  0  0  0
   -0.3270    3.0440   -1.1430 H   0  0  0  0  0  0  0  0  0  0  0  0
    4.1020    3.0460   -0.5140 H   0  0  0  0  0  0  0  0  0  0  0  0
    2.5630   11.7140   -1.5660 H   0  0  0  0  0  0  0  0  0  0  0  0
    5.1040   11.8120   -0.8450 H   0  0  0  0  0  0  0  0  0  0  0  0
    8.8240   12.7890   -0.0160 H   0  0  0  0  0  0  0  0  0  0  0  0
   10.6340   10.9680    0.7910 H   0  0  0  0  0  0  0  0  0  0  0  0
  1  2  2  0  0  0  0
  2  4  1  0  0  0  0
  2 30  1  0  0  0  0
  3  5  2  0  0  0  0
  3  1  1  0  0  0  0
  4 31  1  0  0  0  0
  5  6  1  0  0  0  0
  6  7  1  0  0  0  0
  6  4  2  0  0  0  0
  7  9  1  0  0  0  0
  8 10  1  0  0  0  0
  8  7  2  0  0  0  0
  9 12  1  0  0  0  0
  9 11  2  0  0  0  0
 10 13  2  0  0  0  0
 11 14  1  0  0  0  0
 12 15  2  0  0  0  0
 13 12  1  0  0  0  0
 15 14  1  0  0  0  0
 16 13  1  1  0  0  0
 16 17  1  0  0  0  0
 18 21  2  0  0  0  0
 18 16  1  0  0  0  0
 19 22  1  0  0  0  0
 19 17  2  0  0  0  0
 20 18  1  0  0  0  0
 21 19  1  0  0  0  0
 22 26  1  0  0  0  0
 23 20  1  0  0  0  0
 23 24  2  0  0  0  0
 24 21  1  0  0  0  0
 25 27  1  0  0  0  0
 25 22  2  0  0  0  0
 27 28  2  0  0  0  0
 28 26  1  0  0  0  0
 28 37  1  0  0  0  0
 29  1  1  0  0  0  0
 32  5  1  0  0  0  0
 33  8  1  0  0  0  0
 34 23  1  0  0  0  0
 35 24  1  0  0  0  0
 36 27  1  0  0  0  0
M  END
$$$$
scan_sander_basal_param/min_pdbs/min_pdb_C271_345.pdb
 OpenBabel10021702273D

 37 42  0  0  1  0  0  0  0  0999 V2000
    0.3830   -0.1550   -0.2080 C   0  0  0  0  0  0  0  0  0  0  0  0
    1.5340    0.0340    0.5730 C   0  0  0  0  0  0  0  0  0  0  0  0
   -0.2020    0.8460   -0.8940 N   0  0  0  0  0  0  0  0  0  0  0  0
    2.1000    1.3160    0.6490 C   0  0  0  0  0  0  0  0  0  0  0  0
    0.3420    2.0780   -0.8170 C   0  0  0  0  0  0  0  0  0  0  0  0
    1.4990    2.3860   -0.0560 C   0  0  0  0  0  0  0  0  0  0  0  0
    2.0840    3.7630   -0.0180 C   0  0  0  0  0  0  0  0  0  0  0  0
    3.4770    3.9600   -0.1170 C   0  0  0  0  0  0  0  0  0  0  0  0
    1.3140    4.9390    0.1200 C   0  0  0  0  0  0  0  0  0  0  0  0
    4.0630    5.1710   -0.1050 N   0  0  0  0  0  0  0  0  0  0  0  0
   -0.0220    4.9300    0.3020 N   0  0  0  0  0  0  0  0  0  0  0  0
    1.9110    6.1980    0.1310 C   0  0  0  0  0  0  0  0  0  0  0  0
    3.3240    6.3020   -0.0100 C   0  0  0  0  0  0  0  0  0  0  0  0
   -0.4370    6.4950    0.5040 S   0  0  0  0  0  0  0  0  0  0  0  0
    1.0350    7.1950    0.3770 N   0  0  0  0  0  0  0  0  0  0  0  0
    4.1810    7.5130   -0.0690 C   0  0  2  0  0  0  0  0  0  0  0  0
    5.9440    7.4190    0.1530 B   0  0  0  0  0  0  0  0  0  0  0  0
    3.8280    8.8370   -0.2810 C   0  0  0  0  0  0  0  0  0  0  0  0
    6.1390    9.1640   -0.0050 C   0  0  0  0  0  0  0  0  0  0  0  0
    2.3140    9.5530   -0.7750 S   0  0  0  0  0  0  0  0  0  0  0  0
    4.9090    9.7230   -0.2560 C   0  0  0  0  0  0  0  0  0  0  0  0
    7.4010    9.8510    0.1070 C   0  0  0  0  0  0  0  0  0  0  0  0
    3.1360   11.1320   -0.8250 C   0  0  0  0  0  0  0  0  0  0  0  0
    4.4910   11.0570   -0.5490 C   0  0  0  0  0  0  0  0  0  0  0  0
    7.4560   11.1620   -0.0410 C   0  0  0  0  0  0  0  0  0  0  0  0
    8.9130    9.0350    0.4350 S   0  0  0  0  0  0  0  0  0  0  0  0
    8.7520   11.6040    0.1050 C   0  0  0  0  0  0  0  0  0  0  0  0
    9.6670   10.6090    0.3630 C   0  0  0  0  0  0  0  0  0  0  0  0
   -0.0840   -1.1360   -0.2910 H   0  0  0  0  0  0  0  0  0  0  0  0
    1.9750   -0.8000    1.1100 H   0  0  0  0  0  0  0  0  0  0  0  0
    2.9880    1.4850    1.2530 H   0  0  0  0  0  0  0  0  0  0  0  0
   -0.1570    2.8520   -1.3970 H   0  0  0  0  0  0  0  0  0  0  0  0
    4.1500    3.1080   -0.2220 H   0  0  0  0  0  0  0  0  0  0  0  0
    2.5600   12.0110   -1.0830 H   0  0  0  0  0  0  0  0  0  0  0  0
    5.1500   11.9160   -0.5770 H   0  0  0  0  0  0  0  0  0  0  0  0
    8.9600   12.6630    0.0110 H   0  0  0  0  0  0  0  0  0  0  0  0
   10.7330   10.7020    0.5150 H   0  0  0  0  0  0  0  0  0  0  0  0
  1  2  2  0  0  0  0
  2  4  1  0  0  0  0
  2 30  1  0  0  0  0
  3  5  2  0  0  0  0
  3  1  1  0  0  0  0
  4 31  1  0  0  0  0
  5  6  1  0  0  0  0
  6  7  1  0  0  0  0
  6  4  2  0  0  0  0
  7  9  1  0  0  0  0
  8 10  1  0  0  0  0
  8  7  2  0  0  0  0
  9 12  1  0  0  0  0
  9 11  2  0  0  0  0
 10 13  2  0  0  0  0
 11 14  1  0  0  0  0
 12 15  2  0  0  0  0
 13 12  1  0  0  0  0
 15 14  1  0  0  0  0
 16 13  1  1  0  0  0
 16 17  1  0  0  0  0
 18 21  2  0  0  0  0
 18 16  1  0  0  0  0
 19 22  1  0  0  0  0
 19 17  2  0  0  0  0
 20 18  1  0  0  0  0
 21 19  1  0  0  0  0
 22 26  1  0  0  0  0
 23 20  1  0  0  0  0
 23 24  2  0  0  0  0
 24 21  1  0  0  0  0
 25 27  1  0  0  0  0
 25 22  2  0  0  0  0
 27 28  2  0  0  0  0
 28 26  1  0  0  0  0
 28 37  1  0  0  0  0
 29  1  1  0  0  0  0
 32  5  1  0  0  0  0
 33  8  1  0  0  0  0
 34 23  1  0  0  0  0
 35 24  1  0  0  0  0
 36 27  1  0  0  0  0
M  END
$$$$
scan_sander_basal_param/min_pdbs/min_pdb_C271_360.pdb
 OpenBabel10021702273D

 37 42  0  0  1  0  0  0  0  0999 V2000
    0.5010   -0.2140   -0.1070 C   0  0  0  0  0  0  0  0  0  0  0  0
    1.5270    0.0900    0.8020 C   0  0  0  0  0  0  0  0  0  0  0  0
   -0.0040    0.6950   -0.9630 N   0  0  0  0  0  0  0  0  0  0  0  0
    2.0480    1.3940    0.8280 C   0  0  0  0  0  0  0  0  0  0  0  0
    0.4960    1.9480   -0.9330 C   0  0  0  0  0  0  0  0  0  0  0  0
    1.5260    2.3690   -0.0540 C   0  0  0  0  0  0  0  0  0  0  0  0
    2.0710    3.7640   -0.0700 C   0  0  0  0  0  0  0  0  0  0  0  0
    3.4580    3.9970    0.0050 C   0  0  0  0  0  0  0  0  0  0  0  0
    1.2670    4.9230   -0.1550 C   0  0  0  0  0  0  0  0  0  0  0  0
    4.0090    5.2250   -0.0100 N   0  0  0  0  0  0  0  0  0  0  0  0
   -0.0790    4.8790   -0.2080 N   0  0  0  0  0  0  0  0  0  0  0  0
    1.8300    6.1990   -0.1670 C   0  0  0  0  0  0  0  0  0  0  0  0
    3.2470    6.3420   -0.0950 C   0  0  0  0  0  0  0  0  0  0  0  0
   -0.5560    6.4360   -0.2820 S   0  0  0  0  0  0  0  0  0  0  0  0
    0.9010    7.1740   -0.2420 N   0  0  0  0  0  0  0  0  0  0  0  0
    4.1080    7.5610   -0.0940 C   0  0  1  0  0  0  0  0  0  0  0  0
    5.8830    7.4210    0.0090 B   0  0  0  0  0  0  0  0  0  0  0  0
    3.7810    8.9110   -0.1640 C   0  0  0  0  0  0  0  0  0  0  0  0
    6.1180    9.1640   -0.0410 C   0  0  0  0  0  0  0  0  0  0  0  0
    2.2450    9.7330   -0.2870 S   0  0  0  0  0  0  0  0  0  0  0  0
    4.8880    9.7690   -0.1340 C   0  0  0  0  0  0  0  0  0  0  0  0
    7.4070    9.8070    0.0020 C   0  0  0  0  0  0  0  0  0  0  0  0
    3.1170   11.2830   -0.2960 C   0  0  0  0  0  0  0  0  0  0  0  0
    4.4910   11.1390   -0.2100 C   0  0  0  0  0  0  0  0  0  0  0  0
    7.4940   11.1230   -0.0560 C   0  0  0  0  0  0  0  0  0  0  0  0
    8.9150    8.9280    0.1270 S   0  0  0  0  0  0  0  0  0  0  0  0
    8.8120   11.5180   -0.0010 C   0  0  0  0  0  0  0  0  0  0  0  0
    9.7120   10.4820    0.0980 C   0  0  0  0  0  0  0  0  0  0  0  0
    0.0740   -1.2140   -0.1560 H   0  0  0  0  0  0  0  0  0  0  0  0
    1.9070   -0.6730    1.4750 H   0  0  0  0  0  0  0  0  0  0  0  0
    2.8370    1.6510    1.5290 H   0  0  0  0  0  0  0  0  0  0  0  0
    0.0660    2.6440   -1.6520 H   0  0  0  0  0  0  0  0  0  0  0  0
    4.1570    3.1640    0.0670 H   0  0  0  0  0  0  0  0  0  0  0  0
    2.5490   12.2010   -0.3640 H   0  0  0  0  0  0  0  0  0  0  0  0
    5.1740   11.9790   -0.2030 H   0  0  0  0  0  0  0  0  0  0  0  0
    9.0460   12.5750   -0.0380 H   0  0  0  0  0  0  0  0  0  0  0  0
   10.7900   10.5330    0.1550 H   0  0  0  0  0  0  0  0  0  0  0  0
  1  2  2  0  0  0  0
  2  4  1  0  0  0  0
  2 30  1  0  0  0  0
  3  5  2  0  0  0  0
  3  1  1  0  0  0  0
  4 31  1  0  0  0  0
  5  6  1  0  0  0  0
  6  4  2  0  0  0  0
  7  6  1  0  0  0  0
  7  8  2  0  0  0  0
  8 33  1  0  0  0  0
  9  7  1  0  0  0  0
 10  8  1  0  0  0  0
 11  9  2  0  0  0  0
 12  9  1  0  0  0  0
 12 13  1  0  0  0  0
 13 10  2  0  0  0  0
 14 15  1  0  0  0  0
 14 11  1  0  0  0  0
 15 12  2  0  0  0  0
 16 13  1  6  0  0  0
 16 17  1  0  0  0  0
 18 21  2  0  0  0  0
 18 16  1  0  0  0  0
 19 22  1  0  0  0  0
 19 17  2  0  0  0  0
 20 18  1  0  0  0  0
 21 19  1  0  0  0  0
 22 26  1  0  0  0  0
 23 20  1  0  0  0  0
 23 24  2  0  0  0  0
 24 35  1  0  0  0  0
 24 21  1  0  0  0  0
 25 27  1  0  0  0  0
 25 22  2  0  0  0  0
 27 28  2  0  0  0  0
 28 26  1  0  0  0  0
 28 37  1  0  0  0  0
 29  1  1  0  0  0  0
 32  5  1  0  0  0  0
 34 23  1  0  0  0  0
 36 27  1  0  0  0  0
M  END
$$$$
