scan_sander_basal/min_pdbs/min_pdb_C271_000.pdb
 OpenBabel09051719303D

 37 42  0  0  1  0  0  0  0  0999 V2000
    0.0260    0.0830    0.5700 C   0  0  0  0  0  0  0  0  0  0  0  0
    1.0590    0.3880    1.4710 C   0  0  0  0  0  0  0  0  0  0  0  0
   -0.3570    0.9250   -0.4080 N   0  0  0  0  0  0  0  0  0  0  0  0
    1.7210    1.6200    1.3540 C   0  0  0  0  0  0  0  0  0  0  0  0
    0.2790    2.1110   -0.5170 C   0  0  0  0  0  0  0  0  0  0  0  0
    1.3310    2.5260    0.3390 C   0  0  0  0  0  0  0  0  0  0  0  0
    2.0260    3.8410    0.1690 C   0  0  0  0  0  0  0  0  0  0  0  0
    3.4320    3.9330    0.2620 C   0  0  0  0  0  0  0  0  0  0  0  0
    1.3540    5.0570   -0.0870 C   0  0  0  0  0  0  0  0  0  0  0  0
    4.1180    5.0830    0.1170 N   0  0  0  0  0  0  0  0  0  0  0  0
    0.0150    5.1670   -0.1880 N   0  0  0  0  0  0  0  0  0  0  0  0
    2.0590    6.2470   -0.2350 C   0  0  0  0  0  0  0  0  0  0  0  0
    3.4760    6.2470   -0.1300 C   0  0  0  0  0  0  0  0  0  0  0  0
   -0.2650    6.7510   -0.4730 S   0  0  0  0  0  0  0  0  0  0  0  0
    1.2680    7.3210   -0.4690 N   0  0  0  0  0  0  0  0  0  0  0  0
    4.2990    7.4750   -0.2800 C   0  0  1  0  0  0  0  0  0  0  0  0
    3.6890    9.1190   -0.5840 B   0  0  0  0  0  0  0  0  0  0  0  0
    5.6820    7.5270   -0.2010 C   0  0  0  0  0  0  0  0  0  0  0  0
    5.3170    9.8080   -0.5940 C   0  0  0  0  0  0  0  0  0  0  0  0
    6.8460    6.2510    0.0750 S   0  0  0  0  0  0  0  0  0  0  0  0
    6.2230    8.8010   -0.3750 C   0  0  0  0  0  0  0  0  0  0  0  0
    5.6240   11.2000   -0.8020 C   0  0  0  0  0  0  0  0  0  0  0  0
    8.1250    7.4870   -0.0450 C   0  0  0  0  0  0  0  0  0  0  0  0
    7.6480    8.7670   -0.2820 C   0  0  0  0  0  0  0  0  0  0  0  0
    4.5760   11.9820   -0.9960 C   0  0  0  0  0  0  0  0  0  0  0  0
    7.1910   11.9790   -0.8330 S   0  0  0  0  0  0  0  0  0  0  0  0
    4.9770   13.2850   -1.1850 C   0  0  0  0  0  0  0  0  0  0  0  0
    6.3390   13.4740   -1.1310 C   0  0  0  0  0  0  0  0  0  0  0  0
   -0.5090   -0.8640    0.6310 H   0  0  0  0  0  0  0  0  0  0  0  0
    1.3380   -0.3200    2.2450 H   0  0  0  0  0  0  0  0  0  0  0  0
    2.5200    1.8780    2.0440 H   0  0  0  0  0  0  0  0  0  0  0  0
   -0.0560    2.7530   -1.3300 H   0  0  0  0  0  0  0  0  0  0  0  0
    4.0330    3.0440    0.4520 H   0  0  0  0  0  0  0  0  0  0  0  0
    9.1550    7.1750    0.0680 H   0  0  0  0  0  0  0  0  0  0  0  0
    8.2980    9.6240   -0.3800 H   0  0  0  0  0  0  0  0  0  0  0  0
    4.2260   14.0470   -1.3560 H   0  0  0  0  0  0  0  0  0  0  0  0
    6.8940   14.3950   -1.2480 H   0  0  0  0  0  0  0  0  0  0  0  0
  1 29  1  0  0  0  0
  1  2  2  0  0  0  0
  2 30  1  0  0  0  0
  3  1  1  0  0  0  0
  4  2  1  0  0  0  0
  4 31  1  0  0  0  0
  5  3  2  0  0  0  0
  5  6  1  0  0  0  0
  6  4  2  0  0  0  0
  7  8  2  0  0  0  0
  7  6  1  0  0  0  0
  8 33  1  0  0  0  0
  9  7  1  0  0  0  0
 10  8  1  0  0  0  0
 11  9  2  0  0  0  0
 12 13  1  0  0  0  0
 12  9  1  0  0  0  0
 13 10  2  0  0  0  0
 14 15  1  0  0  0  0
 14 11  1  0  0  0  0
 15 12  2  0  0  0  0
 16 18  1  0  0  0  0
 16 13  1  1  0  0  0
 17 16  1  0  0  0  0
 18 20  1  0  0  0  0
 19 17  2  0  0  0  0
 19 21  1  0  0  0  0
 21 24  1  0  0  0  0
 21 18  2  0  0  0  0
 22 19  1  0  0  0  0
 23 34  1  0  0  0  0
 23 20  1  0  0  0  0
 24 23  2  0  0  0  0
 25 22  2  0  0  0  0
 26 22  1  0  0  0  0
 27 28  2  0  0  0  0
 27 25  1  0  0  0  0
 28 26  1  0  0  0  0
 32  5  1  0  0  0  0
 35 24  1  0  0  0  0
 36 27  1  0  0  0  0
 37 28  1  0  0  0  0
M  END
$$$$
scan_sander_basal/min_pdbs/min_pdb_C271_015.pdb
 OpenBabel09051719303D

 37 42  0  0  1  0  0  0  0  0999 V2000
    0.0380    0.0720    0.5400 C   0  0  0  0  0  0  0  0  0  0  0  0
    1.0700    0.3730    1.4430 C   0  0  0  0  0  0  0  0  0  0  0  0
   -0.3470    0.9210   -0.4320 N   0  0  0  0  0  0  0  0  0  0  0  0
    1.7290    1.6090    1.3350 C   0  0  0  0  0  0  0  0  0  0  0  0
    0.2850    2.1090   -0.5310 C   0  0  0  0  0  0  0  0  0  0  0  0
    1.3350    2.5210    0.3280 C   0  0  0  0  0  0  0  0  0  0  0  0
    2.0270    3.8390    0.1670 C   0  0  0  0  0  0  0  0  0  0  0  0
    3.4330    3.9350    0.2620 C   0  0  0  0  0  0  0  0  0  0  0  0
    1.3510    5.0550   -0.0800 C   0  0  0  0  0  0  0  0  0  0  0  0
    4.1150    5.0880    0.1250 N   0  0  0  0  0  0  0  0  0  0  0  0
    0.0110    5.1620   -0.1790 N   0  0  0  0  0  0  0  0  0  0  0  0
    2.0520    6.2490   -0.2190 C   0  0  0  0  0  0  0  0  0  0  0  0
    3.4690    6.2510   -0.1130 C   0  0  0  0  0  0  0  0  0  0  0  0
   -0.2740    6.7470   -0.4520 S   0  0  0  0  0  0  0  0  0  0  0  0
    1.2580    7.3220   -0.4450 N   0  0  0  0  0  0  0  0  0  0  0  0
    4.2880    7.4830   -0.2530 C   0  0  1  0  0  0  0  0  0  0  0  0
    3.6740    9.1290   -0.5440 B   0  0  0  0  0  0  0  0  0  0  0  0
    5.6720    7.5370   -0.1730 C   0  0  0  0  0  0  0  0  0  0  0  0
    5.3010    9.8180   -0.5530 C   0  0  0  0  0  0  0  0  0  0  0  0
    6.8410    6.2670    0.1050 S   0  0  0  0  0  0  0  0  0  0  0  0
    6.2080    8.8130   -0.3400 C   0  0  0  0  0  0  0  0  0  0  0  0
    5.6190   11.1970   -0.8120 C   0  0  0  0  0  0  0  0  0  0  0  0
    8.1140    7.5130    0.0130 C   0  0  0  0  0  0  0  0  0  0  0  0
    7.6300    8.7920   -0.2200 C   0  0  0  0  0  0  0  0  0  0  0  0
    4.5960   12.0320   -0.7530 C   0  0  0  0  0  0  0  0  0  0  0  0
    7.1620   11.8790   -1.2760 S   0  0  0  0  0  0  0  0  0  0  0  0
    5.0080   13.3110   -1.0560 C   0  0  0  0  0  0  0  0  0  0  0  0
    6.3460   13.4220   -1.3570 C   0  0  0  0  0  0  0  0  0  0  0  0
   -0.4940   -0.8770    0.5940 H   0  0  0  0  0  0  0  0  0  0  0  0
    1.3510   -0.3400    2.2120 H   0  0  0  0  0  0  0  0  0  0  0  0
    2.5270    1.8630    2.0270 H   0  0  0  0  0  0  0  0  0  0  0  0
   -0.0520    2.7560   -1.3400 H   0  0  0  0  0  0  0  0  0  0  0  0
    4.0360    3.0460    0.4440 H   0  0  0  0  0  0  0  0  0  0  0  0
    9.1440    7.2090    0.1490 H   0  0  0  0  0  0  0  0  0  0  0  0
    8.2700    9.6610   -0.2830 H   0  0  0  0  0  0  0  0  0  0  0  0
    4.2810   14.1140   -1.0400 H   0  0  0  0  0  0  0  0  0  0  0  0
    6.9010   14.3100   -1.6250 H   0  0  0  0  0  0  0  0  0  0  0  0
  1 29  1  0  0  0  0
  1  2  2  0  0  0  0
  2 30  1  0  0  0  0
  3  1  1  0  0  0  0
  4  2  1  0  0  0  0
  4 31  1  0  0  0  0
  5  3  2  0  0  0  0
  5  6  1  0  0  0  0
  6  4  2  0  0  0  0
  7  8  2  0  0  0  0
  7  6  1  0  0  0  0
  8 33  1  0  0  0  0
  9  7  1  0  0  0  0
 10  8  1  0  0  0  0
 11  9  2  0  0  0  0
 12 13  1  0  0  0  0
 12  9  1  0  0  0  0
 13 10  2  0  0  0  0
 14 15  1  0  0  0  0
 14 11  1  0  0  0  0
 15 12  2  0  0  0  0
 16 18  1  0  0  0  0
 16 13  1  1  0  0  0
 17 16  1  0  0  0  0
 18 20  1  0  0  0  0
 19 17  2  0  0  0  0
 19 21  1  0  0  0  0
 21 24  1  0  0  0  0
 21 18  2  0  0  0  0
 22 25  2  0  0  0  0
 22 19  1  0  0  0  0
 23 20  1  0  0  0  0
 23 34  1  0  0  0  0
 24 23  2  0  0  0  0
 26 22  1  0  0  0  0
 27 36  1  0  0  0  0
 27 25  1  0  0  0  0
 28 26  1  0  0  0  0
 28 27  2  0  0  0  0
 32  5  1  0  0  0  0
 35 24  1  0  0  0  0
 37 28  1  0  0  0  0
M  END
$$$$
scan_sander_basal/min_pdbs/min_pdb_C271_030.pdb
 OpenBabel09051719303D

 37 42  0  0  1  0  0  0  0  0999 V2000
    0.0580    0.0570    0.5440 C   0  0  0  0  0  0  0  0  0  0  0  0
    1.0830    0.3690    1.4520 C   0  0  0  0  0  0  0  0  0  0  0  0
   -0.3270    0.8980   -0.4350 N   0  0  0  0  0  0  0  0  0  0  0  0
    1.7340    1.6080    1.3420 C   0  0  0  0  0  0  0  0  0  0  0  0
    0.2980    2.0900   -0.5360 C   0  0  0  0  0  0  0  0  0  0  0  0
    1.3410    2.5130    0.3270 C   0  0  0  0  0  0  0  0  0  0  0  0
    2.0260    3.8340    0.1650 C   0  0  0  0  0  0  0  0  0  0  0  0
    3.4300    3.9390    0.2680 C   0  0  0  0  0  0  0  0  0  0  0  0
    1.3440    5.0450   -0.0920 C   0  0  0  0  0  0  0  0  0  0  0  0
    4.1060    5.0960    0.1290 N   0  0  0  0  0  0  0  0  0  0  0  0
    0.0040    5.1430   -0.2000 N   0  0  0  0  0  0  0  0  0  0  0  0
    2.0370    6.2420   -0.2320 C   0  0  0  0  0  0  0  0  0  0  0  0
    3.4540    6.2540   -0.1180 C   0  0  0  0  0  0  0  0  0  0  0  0
   -0.2890    6.7250   -0.4820 S   0  0  0  0  0  0  0  0  0  0  0  0
    1.2390    7.3090   -0.4690 N   0  0  0  0  0  0  0  0  0  0  0  0
    4.2660    7.4890   -0.2580 C   0  0  1  0  0  0  0  0  0  0  0  0
    3.6450    9.1330   -0.5610 B   0  0  0  0  0  0  0  0  0  0  0  0
    5.6490    7.5500   -0.1690 C   0  0  0  0  0  0  0  0  0  0  0  0
    5.2690    9.8240   -0.5600 C   0  0  0  0  0  0  0  0  0  0  0  0
    6.8300    6.2920    0.1220 S   0  0  0  0  0  0  0  0  0  0  0  0
    6.1780    8.8260   -0.3390 C   0  0  0  0  0  0  0  0  0  0  0  0
    5.6070   11.1900   -0.8380 C   0  0  0  0  0  0  0  0  0  0  0  0
    8.0920    7.5520    0.0320 C   0  0  0  0  0  0  0  0  0  0  0  0
    7.5970    8.8250   -0.2110 C   0  0  0  0  0  0  0  0  0  0  0  0
    4.6880   12.0820   -0.5180 C   0  0  0  0  0  0  0  0  0  0  0  0
    7.0400   11.7770   -1.6520 S   0  0  0  0  0  0  0  0  0  0  0  0
    5.1110   13.3410   -0.8820 C   0  0  0  0  0  0  0  0  0  0  0  0
    6.3440   13.3730   -1.4940 C   0  0  0  0  0  0  0  0  0  0  0  0
   -0.4690   -0.8950    0.5990 H   0  0  0  0  0  0  0  0  0  0  0  0
    1.3630   -0.3390    2.2260 H   0  0  0  0  0  0  0  0  0  0  0  0
    2.5260    1.8700    2.0380 H   0  0  0  0  0  0  0  0  0  0  0  0
   -0.0380    2.7310   -1.3490 H   0  0  0  0  0  0  0  0  0  0  0  0
    4.0370    3.0550    0.4580 H   0  0  0  0  0  0  0  0  0  0  0  0
    9.1240    7.2590    0.1780 H   0  0  0  0  0  0  0  0  0  0  0  0
    8.2200    9.7080   -0.2720 H   0  0  0  0  0  0  0  0  0  0  0  0
    4.4720   14.1910   -0.6750 H   0  0  0  0  0  0  0  0  0  0  0  0
    6.8840   14.2320   -1.8690 H   0  0  0  0  0  0  0  0  0  0  0  0
  1 29  1  0  0  0  0
  1  2  2  0  0  0  0
  2 30  1  0  0  0  0
  3  1  1  0  0  0  0
  4  2  1  0  0  0  0
  4 31  1  0  0  0  0
  5  3  2  0  0  0  0
  5  6  1  0  0  0  0
  6  4  2  0  0  0  0
  7  8  2  0  0  0  0
  7  6  1  0  0  0  0
  8 33  1  0  0  0  0
  9  7  1  0  0  0  0
 10  8  1  0  0  0  0
 11  9  2  0  0  0  0
 12 13  1  0  0  0  0
 12  9  1  0  0  0  0
 13 10  2  0  0  0  0
 14 15  1  0  0  0  0
 14 11  1  0  0  0  0
 15 12  2  0  0  0  0
 16 18  1  0  0  0  0
 16 13  1  1  0  0  0
 17 19  2  0  0  0  0
 17 16  1  0  0  0  0
 18 20  1  0  0  0  0
 19 21  1  0  0  0  0
 21 24  1  0  0  0  0
 21 18  2  0  0  0  0
 22 19  1  0  0  0  0
 22 25  2  0  0  0  0
 23 20  1  0  0  0  0
 23 34  1  0  0  0  0
 24 23  2  0  0  0  0
 26 28  1  0  0  0  0
 26 22  1  0  0  0  0
 27 36  1  0  0  0  0
 27 25  1  0  0  0  0
 28 27  2  0  0  0  0
 32  5  1  0  0  0  0
 35 24  1  0  0  0  0
 37 28  1  0  0  0  0
M  END
$$$$
scan_sander_basal/min_pdbs/min_pdb_C271_045.pdb
 OpenBabel09051719303D

 37 42  0  0  1  0  0  0  0  0999 V2000
    0.0830    0.0390    0.5710 C   0  0  0  0  0  0  0  0  0  0  0  0
    1.0940    0.3720    1.4860 C   0  0  0  0  0  0  0  0  0  0  0  0
   -0.2980    0.8630   -0.4230 N   0  0  0  0  0  0  0  0  0  0  0  0
    1.7360    1.6150    1.3660 C   0  0  0  0  0  0  0  0  0  0  0  0
    0.3180    2.0590   -0.5340 C   0  0  0  0  0  0  0  0  0  0  0  0
    1.3480    2.5020    0.3350 C   0  0  0  0  0  0  0  0  0  0  0  0
    2.0230    3.8270    0.1620 C   0  0  0  0  0  0  0  0  0  0  0  0
    3.4250    3.9450    0.2790 C   0  0  0  0  0  0  0  0  0  0  0  0
    1.3340    5.0280   -0.1190 C   0  0  0  0  0  0  0  0  0  0  0  0
    4.0940    5.1050    0.1320 N   0  0  0  0  0  0  0  0  0  0  0  0
   -0.0060    5.1130   -0.2440 N   0  0  0  0  0  0  0  0  0  0  0  0
    2.0190    6.2290   -0.2690 C   0  0  0  0  0  0  0  0  0  0  0  0
    3.4340    6.2540   -0.1390 C   0  0  0  0  0  0  0  0  0  0  0  0
   -0.3080    6.6890   -0.5510 S   0  0  0  0  0  0  0  0  0  0  0  0
    1.2150    7.2860   -0.5290 N   0  0  0  0  0  0  0  0  0  0  0  0
    4.2380    7.4940   -0.2850 C   0  0  1  0  0  0  0  0  0  0  0  0
    3.6070    9.1310   -0.6190 B   0  0  0  0  0  0  0  0  0  0  0  0
    5.6190    7.5640   -0.1810 C   0  0  0  0  0  0  0  0  0  0  0  0
    5.2270    9.8260   -0.6070 C   0  0  0  0  0  0  0  0  0  0  0  0
    6.8120    6.3240    0.1350 S   0  0  0  0  0  0  0  0  0  0  0  0
    6.1390    8.8410   -0.3620 C   0  0  0  0  0  0  0  0  0  0  0  0
    5.5830   11.1850   -0.8800 C   0  0  0  0  0  0  0  0  0  0  0  0
    8.0630    7.5960    0.0310 C   0  0  0  0  0  0  0  0  0  0  0  0
    7.5560    8.8610   -0.2320 C   0  0  0  0  0  0  0  0  0  0  0  0
    4.8350   12.1070   -0.3050 C   0  0  0  0  0  0  0  0  0  0  0  0
    6.8440   11.7230   -1.9630 S   0  0  0  0  0  0  0  0  0  0  0  0
    5.2680   13.3560   -0.6890 C   0  0  0  0  0  0  0  0  0  0  0  0
    6.3310   13.3470   -1.5660 C   0  0  0  0  0  0  0  0  0  0  0  0
   -0.4370   -0.9170    0.6330 H   0  0  0  0  0  0  0  0  0  0  0  0
    1.3720   -0.3230    2.2730 H   0  0  0  0  0  0  0  0  0  0  0  0
    2.5180    1.8940    2.0670 H   0  0  0  0  0  0  0  0  0  0  0  0
   -0.0140    2.6860   -1.3600 H   0  0  0  0  0  0  0  0  0  0  0  0
    4.0380    3.0690    0.4880 H   0  0  0  0  0  0  0  0  0  0  0  0
    9.0980    7.3160    0.1820 H   0  0  0  0  0  0  0  0  0  0  0  0
    8.1630    9.7550   -0.3130 H   0  0  0  0  0  0  0  0  0  0  0  0
    4.7650   14.2310   -0.2960 H   0  0  0  0  0  0  0  0  0  0  0  0
    6.8410   14.1920   -2.0080 H   0  0  0  0  0  0  0  0  0  0  0  0
  1 29  1  0  0  0  0
  1  2  2  0  0  0  0
  2 30  1  0  0  0  0
  3  1  1  0  0  0  0
  4  2  1  0  0  0  0
  4 31  1  0  0  0  0
  5  3  2  0  0  0  0
  5  6  1  0  0  0  0
  6  4  2  0  0  0  0
  7  8  2  0  0  0  0
  7  6  1  0  0  0  0
  8 33  1  0  0  0  0
  9  7  1  0  0  0  0
 10  8  1  0  0  0  0
 11  9  2  0  0  0  0
 12 13  1  0  0  0  0
 12  9  1  0  0  0  0
 13 10  2  0  0  0  0
 14 15  1  0  0  0  0
 14 11  1  0  0  0  0
 15 12  2  0  0  0  0
 16 18  1  0  0  0  0
 16 13  1  1  0  0  0
 17 19  2  0  0  0  0
 17 16  1  0  0  0  0
 18 20  1  0  0  0  0
 19 21  1  0  0  0  0
 21 24  1  0  0  0  0
 21 18  2  0  0  0  0
 22 19  1  0  0  0  0
 22 25  2  0  0  0  0
 23 20  1  0  0  0  0
 23 34  1  0  0  0  0
 24 23  2  0  0  0  0
 26 28  1  0  0  0  0
 26 22  1  0  0  0  0
 27 25  1  0  0  0  0
 27 36  1  0  0  0  0
 28 27  2  0  0  0  0
 32  5  1  0  0  0  0
 35 24  1  0  0  0  0
 37 28  1  0  0  0  0
M  END
$$$$
scan_sander_basal/min_pdbs/min_pdb_C271_060.pdb
 OpenBabel09051719303D

 37 42  0  0  1  0  0  0  0  0999 V2000
    0.1090    0.0210    0.6020 C   0  0  0  0  0  0  0  0  0  0  0  0
    1.1090    0.3750    1.5220 C   0  0  0  0  0  0  0  0  0  0  0  0
   -0.2680    0.8280   -0.4070 N   0  0  0  0  0  0  0  0  0  0  0  0
    1.7410    1.6210    1.3920 C   0  0  0  0  0  0  0  0  0  0  0  0
    0.3390    2.0270   -0.5280 C   0  0  0  0  0  0  0  0  0  0  0  0
    1.3560    2.4920    0.3450 C   0  0  0  0  0  0  0  0  0  0  0  0
    2.0210    3.8190    0.1610 C   0  0  0  0  0  0  0  0  0  0  0  0
    3.4210    3.9520    0.2900 C   0  0  0  0  0  0  0  0  0  0  0  0
    1.3240    5.0110   -0.1440 C   0  0  0  0  0  0  0  0  0  0  0  0
    4.0810    5.1150    0.1340 N   0  0  0  0  0  0  0  0  0  0  0  0
   -0.0140    5.0830   -0.2840 N   0  0  0  0  0  0  0  0  0  0  0  0
    2.0010    6.2150   -0.3030 C   0  0  0  0  0  0  0  0  0  0  0  0
    3.4140    6.2550   -0.1590 C   0  0  0  0  0  0  0  0  0  0  0  0
   -0.3270    6.6510   -0.6150 S   0  0  0  0  0  0  0  0  0  0  0  0
    1.1900    7.2620   -0.5870 N   0  0  0  0  0  0  0  0  0  0  0  0
    4.2090    7.4990   -0.3150 C   0  0  1  0  0  0  0  0  0  0  0  0
    3.5680    9.1270   -0.6770 B   0  0  0  0  0  0  0  0  0  0  0  0
    5.5890    7.5800   -0.1970 C   0  0  0  0  0  0  0  0  0  0  0  0
    5.1840    9.8300   -0.6620 C   0  0  0  0  0  0  0  0  0  0  0  0
    6.7920    6.3580    0.1450 S   0  0  0  0  0  0  0  0  0  0  0  0
    6.0990    8.8570   -0.3900 C   0  0  0  0  0  0  0  0  0  0  0  0
    5.5480   11.1860   -0.9230 C   0  0  0  0  0  0  0  0  0  0  0  0
    8.0330    7.6410    0.0250 C   0  0  0  0  0  0  0  0  0  0  0  0
    7.5140    8.8960   -0.2590 C   0  0  0  0  0  0  0  0  0  0  0  0
    5.0260   12.0980   -0.1270 C   0  0  0  0  0  0  0  0  0  0  0  0
    6.5770   11.7280   -2.2250 S   0  0  0  0  0  0  0  0  0  0  0  0
    5.4560   13.3460   -0.5200 C   0  0  0  0  0  0  0  0  0  0  0  0
    6.2890   13.3430   -1.6170 C   0  0  0  0  0  0  0  0  0  0  0  0
   -0.4030   -0.9390    0.6720 H   0  0  0  0  0  0  0  0  0  0  0  0
    1.3840   -0.3070    2.3220 H   0  0  0  0  0  0  0  0  0  0  0  0
    2.5130    1.9170    2.0970 H   0  0  0  0  0  0  0  0  0  0  0  0
    0.0100    2.6400   -1.3660 H   0  0  0  0  0  0  0  0  0  0  0  0
    4.0390    3.0840    0.5180 H   0  0  0  0  0  0  0  0  0  0  0  0
    9.0700    7.3730    0.1810 H   0  0  0  0  0  0  0  0  0  0  0  0
    8.1080    9.7980   -0.3610 H   0  0  0  0  0  0  0  0  0  0  0  0
    5.1230   14.2150    0.0350 H   0  0  0  0  0  0  0  0  0  0  0  0
    6.7510   14.1890   -2.1080 H   0  0  0  0  0  0  0  0  0  0  0  0
  1 29  1  0  0  0  0
  1  2  2  0  0  0  0
  2 30  1  0  0  0  0
  3  1  1  0  0  0  0
  4  2  1  0  0  0  0
  4 31  1  0  0  0  0
  5  3  2  0  0  0  0
  5  6  1  0  0  0  0
  6  4  2  0  0  0  0
  7  8  2  0  0  0  0
  7  6  1  0  0  0  0
  8 33  1  0  0  0  0
  9  7  1  0  0  0  0
 10  8  1  0  0  0  0
 11  9  2  0  0  0  0
 12 13  1  0  0  0  0
 12  9  1  0  0  0  0
 13 10  2  0  0  0  0
 14 15  1  0  0  0  0
 14 11  1  0  0  0  0
 15 12  2  0  0  0  0
 16 18  1  0  0  0  0
 16 13  1  1  0  0  0
 17 19  2  0  0  0  0
 17 16  1  0  0  0  0
 18 20  1  0  0  0  0
 19 21  1  0  0  0  0
 21 24  1  0  0  0  0
 21 18  2  0  0  0  0
 22 19  1  0  0  0  0
 22 25  2  0  0  0  0
 23 20  1  0  0  0  0
 23 34  1  0  0  0  0
 24 23  2  0  0  0  0
 26 28  1  0  0  0  0
 26 22  1  0  0  0  0
 27 25  1  0  0  0  0
 27 36  1  0  0  0  0
 28 27  2  0  0  0  0
 32  5  1  0  0  0  0
 35 24  1  0  0  0  0
 37 28  1  0  0  0  0
M  END
$$$$
scan_sander_basal/min_pdbs/min_pdb_C271_075.pdb
 OpenBabel09051719303D

 37 42  0  0  1  0  0  0  0  0999 V2000
    0.1340    0.0040    0.6200 C   0  0  0  0  0  0  0  0  0  0  0  0
    1.1220    0.3750    1.5470 C   0  0  0  0  0  0  0  0  0  0  0  0
   -0.2390    0.7980   -0.4010 N   0  0  0  0  0  0  0  0  0  0  0  0
    1.7460    1.6250    1.4100 C   0  0  0  0  0  0  0  0  0  0  0  0
    0.3600    2.0010   -0.5290 C   0  0  0  0  0  0  0  0  0  0  0  0
    1.3640    2.4820    0.3500 C   0  0  0  0  0  0  0  0  0  0  0  0
    2.0220    3.8130    0.1580 C   0  0  0  0  0  0  0  0  0  0  0  0
    3.4190    3.9570    0.3000 C   0  0  0  0  0  0  0  0  0  0  0  0
    1.3190    4.9960   -0.1660 C   0  0  0  0  0  0  0  0  0  0  0  0
    4.0720    5.1240    0.1390 N   0  0  0  0  0  0  0  0  0  0  0  0
   -0.0180    5.0560   -0.3200 N   0  0  0  0  0  0  0  0  0  0  0  0
    1.9880    6.2040   -0.3300 C   0  0  0  0  0  0  0  0  0  0  0  0
    3.3990    6.2550   -0.1730 C   0  0  0  0  0  0  0  0  0  0  0  0
   -0.3400    6.6190   -0.6700 S   0  0  0  0  0  0  0  0  0  0  0  0
    1.1730    7.2410   -0.6330 N   0  0  0  0  0  0  0  0  0  0  0  0
    4.1860    7.5040   -0.3330 C   0  0  1  0  0  0  0  0  0  0  0  0
    3.5370    9.1240   -0.7180 B   0  0  0  0  0  0  0  0  0  0  0  0
    5.5650    7.5960   -0.2020 C   0  0  0  0  0  0  0  0  0  0  0  0
    5.1480    9.8360   -0.6950 C   0  0  0  0  0  0  0  0  0  0  0  0
    6.7750    6.3870    0.1630 S   0  0  0  0  0  0  0  0  0  0  0  0
    6.0660    8.8740   -0.4030 C   0  0  0  0  0  0  0  0  0  0  0  0
    5.5120   11.1920   -0.9510 C   0  0  0  0  0  0  0  0  0  0  0  0
    8.0070    7.6790    0.0370 C   0  0  0  0  0  0  0  0  0  0  0  0
    7.4800    8.9270   -0.2650 C   0  0  0  0  0  0  0  0  0  0  0  0
    5.2470   12.0640    0.0000 C   0  0  0  0  0  0  0  0  0  0  0  0
    6.2500   11.7780   -2.4200 S   0  0  0  0  0  0  0  0  0  0  0  0
    5.6510   13.3170   -0.4070 C   0  0  0  0  0  0  0  0  0  0  0  0
    6.2070   13.3560   -1.6660 C   0  0  0  0  0  0  0  0  0  0  0  0
   -0.3710   -0.9580    0.6950 H   0  0  0  0  0  0  0  0  0  0  0  0
    1.3950   -0.2950    2.3560 H   0  0  0  0  0  0  0  0  0  0  0  0
    2.5090    1.9340    2.1190 H   0  0  0  0  0  0  0  0  0  0  0  0
    0.0350    2.6020   -1.3760 H   0  0  0  0  0  0  0  0  0  0  0  0
    4.0410    3.0960    0.5420 H   0  0  0  0  0  0  0  0  0  0  0  0
    9.0450    7.4210    0.2010 H   0  0  0  0  0  0  0  0  0  0  0  0
    8.0650    9.8340   -0.3760 H   0  0  0  0  0  0  0  0  0  0  0  0
    5.5100   14.1570    0.2620 H   0  0  0  0  0  0  0  0  0  0  0  0
    6.5950   14.2130   -2.2000 H   0  0  0  0  0  0  0  0  0  0  0  0
  1 29  1  0  0  0  0
  1  2  2  0  0  0  0
  2 30  1  0  0  0  0
  3  1  1  0  0  0  0
  4  2  1  0  0  0  0
  4 31  1  0  0  0  0
  5  3  2  0  0  0  0
  5  6  1  0  0  0  0
  6  4  2  0  0  0  0
  7  8  2  0  0  0  0
  7  6  1  0  0  0  0
  8 33  1  0  0  0  0
  9  7  1  0  0  0  0
 10  8  1  0  0  0  0
 11  9  2  0  0  0  0
 12 13  1  0  0  0  0
 12  9  1  0  0  0  0
 13 10  2  0  0  0  0
 14 15  1  0  0  0  0
 14 11  1  0  0  0  0
 15 12  2  0  0  0  0
 16 18  1  0  0  0  0
 16 13  1  1  0  0  0
 17 19  2  0  0  0  0
 17 16  1  0  0  0  0
 18 20  1  0  0  0  0
 19 21  1  0  0  0  0
 21 24  1  0  0  0  0
 21 18  2  0  0  0  0
 22 19  1  0  0  0  0
 22 25  2  0  0  0  0
 23 20  1  0  0  0  0
 23 34  1  0  0  0  0
 24 23  2  0  0  0  0
 26 28  1  0  0  0  0
 26 22  1  0  0  0  0
 27 25  1  0  0  0  0
 27 36  1  0  0  0  0
 28 27  2  0  0  0  0
 32  5  1  0  0  0  0
 35 24  1  0  0  0  0
 37 28  1  0  0  0  0
M  END
$$$$
scan_sander_basal/min_pdbs/min_pdb_C271_090.pdb
 OpenBabel09051719303D

 37 42  0  0  1  0  0  0  0  0999 V2000
    0.1540   -0.0090    0.6250 C   0  0  0  0  0  0  0  0  0  0  0  0
    1.1330    0.3720    1.5570 C   0  0  0  0  0  0  0  0  0  0  0  0
   -0.2160    0.7770   -0.4030 N   0  0  0  0  0  0  0  0  0  0  0  0
    1.7510    1.6250    1.4190 C   0  0  0  0  0  0  0  0  0  0  0  0
    0.3770    1.9820   -0.5320 C   0  0  0  0  0  0  0  0  0  0  0  0
    1.3720    2.4740    0.3510 C   0  0  0  0  0  0  0  0  0  0  0  0
    2.0240    3.8070    0.1580 C   0  0  0  0  0  0  0  0  0  0  0  0
    3.4190    3.9600    0.3090 C   0  0  0  0  0  0  0  0  0  0  0  0
    1.3170    4.9850   -0.1780 C   0  0  0  0  0  0  0  0  0  0  0  0
    4.0670    5.1300    0.1470 N   0  0  0  0  0  0  0  0  0  0  0  0
   -0.0200    5.0360   -0.3420 N   0  0  0  0  0  0  0  0  0  0  0  0
    1.9800    6.1960   -0.3440 C   0  0  0  0  0  0  0  0  0  0  0  0
    3.3900    6.2560   -0.1750 C   0  0  0  0  0  0  0  0  0  0  0  0
   -0.3470    6.5950   -0.7030 S   0  0  0  0  0  0  0  0  0  0  0  0
    1.1620    7.2270   -0.6580 N   0  0  0  0  0  0  0  0  0  0  0  0
    4.1710    7.5080   -0.3360 C   0  0  1  0  0  0  0  0  0  0  0  0
    3.5160    9.1230   -0.7340 B   0  0  0  0  0  0  0  0  0  0  0  0
    5.5480    7.6080   -0.1950 C   0  0  0  0  0  0  0  0  0  0  0  0
    5.1230    9.8440   -0.7030 C   0  0  0  0  0  0  0  0  0  0  0  0
    6.7630    6.4080    0.1820 S   0  0  0  0  0  0  0  0  0  0  0  0
    6.0440    8.8890   -0.3990 C   0  0  0  0  0  0  0  0  0  0  0  0
    5.4820   11.2000   -0.9650 C   0  0  0  0  0  0  0  0  0  0  0  0
    7.9880    7.7060    0.0560 C   0  0  0  0  0  0  0  0  0  0  0  0
    7.4560    8.9500   -0.2550 C   0  0  0  0  0  0  0  0  0  0  0  0
    5.4930   12.0200    0.0670 C   0  0  0  0  0  0  0  0  0  0  0  0
    5.8750   11.8500   -2.5350 S   0  0  0  0  0  0  0  0  0  0  0  0
    5.8480   13.2810   -0.3600 C   0  0  0  0  0  0  0  0  0  0  0  0
    6.0900   13.3790   -1.7130 C   0  0  0  0  0  0  0  0  0  0  0  0
   -0.3460   -0.9740    0.7020 H   0  0  0  0  0  0  0  0  0  0  0  0
    1.4030   -0.2930    2.3720 H   0  0  0  0  0  0  0  0  0  0  0  0
    2.5070    1.9420    2.1320 H   0  0  0  0  0  0  0  0  0  0  0  0
    0.0550    2.5770   -1.3850 H   0  0  0  0  0  0  0  0  0  0  0  0
    4.0440    3.1040    0.5610 H   0  0  0  0  0  0  0  0  0  0  0  0
    9.0270    7.4550    0.2260 H   0  0  0  0  0  0  0  0  0  0  0  0
    8.0350    9.8600   -0.3700 H   0  0  0  0  0  0  0  0  0  0  0  0
    5.9100   14.0830    0.3670 H   0  0  0  0  0  0  0  0  0  0  0  0
    6.3790   14.2540   -2.2780 H   0  0  0  0  0  0  0  0  0  0  0  0
  1 29  1  0  0  0  0
  1  2  2  0  0  0  0
  2 30  1  0  0  0  0
  3  1  1  0  0  0  0
  4  2  1  0  0  0  0
  4 31  1  0  0  0  0
  5  3  2  0  0  0  0
  5  6  1  0  0  0  0
  6  4  2  0  0  0  0
  7  8  2  0  0  0  0
  7  6  1  0  0  0  0
  8 33  1  0  0  0  0
  9  7  1  0  0  0  0
 10  8  1  0  0  0  0
 11  9  2  0  0  0  0
 12  9  1  0  0  0  0
 12 13  1  0  0  0  0
 13 10  2  0  0  0  0
 14 15  1  0  0  0  0
 14 11  1  0  0  0  0
 15 12  2  0  0  0  0
 16 18  1  0  0  0  0
 16 13  1  1  0  0  0
 17 19  2  0  0  0  0
 17 16  1  0  0  0  0
 18 20  1  0  0  0  0
 19 21  1  0  0  0  0
 21 24  1  0  0  0  0
 21 18  2  0  0  0  0
 22 19  1  0  0  0  0
 22 25  2  0  0  0  0
 23 20  1  0  0  0  0
 23 34  1  0  0  0  0
 24 23  2  0  0  0  0
 26 28  1  0  0  0  0
 26 22  1  0  0  0  0
 27 25  1  0  0  0  0
 27 36  1  0  0  0  0
 28 27  2  0  0  0  0
 32  5  1  0  0  0  0
 35 24  1  0  0  0  0
 37 28  1  0  0  0  0
M  END
$$$$
scan_sander_basal/min_pdbs/min_pdb_C271_105.pdb
 OpenBabel09051719303D

 37 42  0  0  1  0  0  0  0  0999 V2000
    0.1710   -0.0210    0.6180 C   0  0  0  0  0  0  0  0  0  0  0  0
    1.1360    0.3690    1.5590 C   0  0  0  0  0  0  0  0  0  0  0  0
   -0.1910    0.7600   -0.4180 N   0  0  0  0  0  0  0  0  0  0  0  0
    1.7510    1.6240    1.4220 C   0  0  0  0  0  0  0  0  0  0  0  0
    0.3980    1.9670   -0.5450 C   0  0  0  0  0  0  0  0  0  0  0  0
    1.3800    2.4670    0.3470 C   0  0  0  0  0  0  0  0  0  0  0  0
    2.0270    3.8020    0.1560 C   0  0  0  0  0  0  0  0  0  0  0  0
    3.4200    3.9630    0.3230 C   0  0  0  0  0  0  0  0  0  0  0  0
    1.3190    4.9750   -0.1930 C   0  0  0  0  0  0  0  0  0  0  0  0
    4.0640    5.1350    0.1630 N   0  0  0  0  0  0  0  0  0  0  0  0
   -0.0160    5.0190   -0.3720 N   0  0  0  0  0  0  0  0  0  0  0  0
    1.9780    6.1880   -0.3560 C   0  0  0  0  0  0  0  0  0  0  0  0
    3.3850    6.2560   -0.1720 C   0  0  0  0  0  0  0  0  0  0  0  0
   -0.3470    6.5760   -0.7430 S   0  0  0  0  0  0  0  0  0  0  0  0
    1.1580    7.2150   -0.6840 N   0  0  0  0  0  0  0  0  0  0  0  0
    4.1620    7.5110   -0.3290 C   0  0  1  0  0  0  0  0  0  0  0  0
    3.5050    9.1210   -0.7420 B   0  0  0  0  0  0  0  0  0  0  0  0
    5.5370    7.6190   -0.1730 C   0  0  0  0  0  0  0  0  0  0  0  0
    5.1060    9.8520   -0.6900 C   0  0  0  0  0  0  0  0  0  0  0  0
    6.7540    6.4240    0.2160 S   0  0  0  0  0  0  0  0  0  0  0  0
    6.0290    8.9010   -0.3770 C   0  0  0  0  0  0  0  0  0  0  0  0
    5.4600   11.2080   -0.9680 C   0  0  0  0  0  0  0  0  0  0  0  0
    7.9760    7.7260    0.0930 C   0  0  0  0  0  0  0  0  0  0  0  0
    7.4400    8.9670   -0.2250 C   0  0  0  0  0  0  0  0  0  0  0  0
    5.7430   11.9740    0.0670 C   0  0  0  0  0  0  0  0  0  0  0  0
    5.4870   11.9310   -2.5550 S   0  0  0  0  0  0  0  0  0  0  0  0
    6.0330   13.2460   -0.3750 C   0  0  0  0  0  0  0  0  0  0  0  0
    5.9510   13.4080   -1.7400 C   0  0  0  0  0  0  0  0  0  0  0  0
   -0.3260   -0.9880    0.6920 H   0  0  0  0  0  0  0  0  0  0  0  0
    1.4010   -0.2920    2.3800 H   0  0  0  0  0  0  0  0  0  0  0  0
    2.4970    1.9470    2.1430 H   0  0  0  0  0  0  0  0  0  0  0  0
    0.0830    2.5570   -1.4040 H   0  0  0  0  0  0  0  0  0  0  0  0
    4.0470    3.1100    0.5850 H   0  0  0  0  0  0  0  0  0  0  0  0
    9.0140    7.4800    0.2700 H   0  0  0  0  0  0  0  0  0  0  0  0
    8.0170    9.8790   -0.3380 H   0  0  0  0  0  0  0  0  0  0  0  0
    6.2960   14.0070    0.3510 H   0  0  0  0  0  0  0  0  0  0  0  0
    6.1300   14.3040   -2.3190 H   0  0  0  0  0  0  0  0  0  0  0  0
  1 29  1  0  0  0  0
  1  2  2  0  0  0  0
  2 30  1  0  0  0  0
  3  1  1  0  0  0  0
  4  2  1  0  0  0  0
  4 31  1  0  0  0  0
  5  3  2  0  0  0  0
  5  6  1  0  0  0  0
  6  4  2  0  0  0  0
  7  8  2  0  0  0  0
  7  6  1  0  0  0  0
  8 33  1  0  0  0  0
  9  7  1  0  0  0  0
 10  8  1  0  0  0  0
 11  9  2  0  0  0  0
 12  9  1  0  0  0  0
 12 13  1  0  0  0  0
 13 10  2  0  0  0  0
 14 15  1  0  0  0  0
 14 11  1  0  0  0  0
 15 12  2  0  0  0  0
 16 18  1  0  0  0  0
 16 13  1  1  0  0  0
 17 19  2  0  0  0  0
 17 16  1  0  0  0  0
 18 20  1  0  0  0  0
 19 21  1  0  0  0  0
 21 24  1  0  0  0  0
 21 18  2  0  0  0  0
 22 19  1  0  0  0  0
 22 25  2  0  0  0  0
 23 20  1  0  0  0  0
 23 34  1  0  0  0  0
 24 23  2  0  0  0  0
 26 28  1  0  0  0  0
 26 22  1  0  0  0  0
 27 25  1  0  0  0  0
 27 36  1  0  0  0  0
 28 27  2  0  0  0  0
 32  5  1  0  0  0  0
 35 24  1  0  0  0  0
 37 28  1  0  0  0  0
M  END
$$$$
scan_sander_basal/min_pdbs/min_pdb_C271_120.pdb
 OpenBabel09051719303D

 37 42  0  0  1  0  0  0  0  0999 V2000
    0.1830   -0.0300    0.6040 C   0  0  0  0  0  0  0  0  0  0  0  0
    1.1320    0.3690    1.5590 C   0  0  0  0  0  0  0  0  0  0  0  0
   -0.1640    0.7430   -0.4420 N   0  0  0  0  0  0  0  0  0  0  0  0
    1.7430    1.6250    1.4260 C   0  0  0  0  0  0  0  0  0  0  0  0
    0.4220    1.9520   -0.5660 C   0  0  0  0  0  0  0  0  0  0  0  0
    1.3880    2.4600    0.3400 C   0  0  0  0  0  0  0  0  0  0  0  0
    2.0330    3.7980    0.1520 C   0  0  0  0  0  0  0  0  0  0  0  0
    3.4220    3.9640    0.3410 C   0  0  0  0  0  0  0  0  0  0  0  0
    1.3260    4.9650   -0.2150 C   0  0  0  0  0  0  0  0  0  0  0  0
    4.0640    5.1380    0.1850 N   0  0  0  0  0  0  0  0  0  0  0  0
   -0.0060    5.0040   -0.4180 N   0  0  0  0  0  0  0  0  0  0  0  0
    1.9830    6.1810   -0.3740 C   0  0  0  0  0  0  0  0  0  0  0  0
    3.3870    6.2550   -0.1670 C   0  0  0  0  0  0  0  0  0  0  0  0
   -0.3370    6.5560   -0.8030 S   0  0  0  0  0  0  0  0  0  0  0  0
    1.1650    7.2020   -0.7210 N   0  0  0  0  0  0  0  0  0  0  0  0
    4.1610    7.5120   -0.3180 C   0  0  1  0  0  0  0  0  0  0  0  0
    3.5040    9.1160   -0.7510 B   0  0  0  0  0  0  0  0  0  0  0  0
    5.5330    7.6270   -0.1400 C   0  0  0  0  0  0  0  0  0  0  0  0
    5.0990    9.8600   -0.6650 C   0  0  0  0  0  0  0  0  0  0  0  0
    6.7480    6.4360    0.2610 S   0  0  0  0  0  0  0  0  0  0  0  0
    6.0230    8.9120   -0.3390 C   0  0  0  0  0  0  0  0  0  0  0  0
    5.4440   11.2150   -0.9660 C   0  0  0  0  0  0  0  0  0  0  0  0
    7.9690    7.7390    0.1460 C   0  0  0  0  0  0  0  0  0  0  0  0
    7.4330    8.9780   -0.1790 C   0  0  0  0  0  0  0  0  0  0  0  0
    5.9770   11.9310    0.0060 C   0  0  0  0  0  0  0  0  0  0  0  0
    5.1120   12.0160   -2.4800 S   0  0  0  0  0  0  0  0  0  0  0  0
    6.1940   13.2160   -0.4390 C   0  0  0  0  0  0  0  0  0  0  0  0
    5.7990   13.4430   -1.7390 C   0  0  0  0  0  0  0  0  0  0  0  0
   -0.3110   -0.9990    0.6760 H   0  0  0  0  0  0  0  0  0  0  0  0
    1.3840   -0.2860    2.3880 H   0  0  0  0  0  0  0  0  0  0  0  0
    2.4760    1.9550    2.1570 H   0  0  0  0  0  0  0  0  0  0  0  0
    0.1190    2.5360   -1.4340 H   0  0  0  0  0  0  0  0  0  0  0  0
    4.0470    3.1160    0.6190 H   0  0  0  0  0  0  0  0  0  0  0  0
    9.0060    7.4940    0.3290 H   0  0  0  0  0  0  0  0  0  0  0  0
    8.0100    9.8890   -0.2920 H   0  0  0  0  0  0  0  0  0  0  0  0
    6.6400   13.9370    0.2350 H   0  0  0  0  0  0  0  0  0  0  0  0
    5.8650   14.3620   -2.3070 H   0  0  0  0  0  0  0  0  0  0  0  0
  1 29  1  0  0  0  0
  1  2  2  0  0  0  0
  2 30  1  0  0  0  0
  3  1  1  0  0  0  0
  4  2  1  0  0  0  0
  4 31  1  0  0  0  0
  5  3  2  0  0  0  0
  5  6  1  0  0  0  0
  6  4  2  0  0  0  0
  7  6  1  0  0  0  0
  7  8  2  0  0  0  0
  8 33  1  0  0  0  0
  9  7  1  0  0  0  0
 10  8  1  0  0  0  0
 11  9  2  0  0  0  0
 12  9  1  0  0  0  0
 12 13  1  0  0  0  0
 13 10  2  0  0  0  0
 14 15  1  0  0  0  0
 14 11  1  0  0  0  0
 15 12  2  0  0  0  0
 16 13  1  1  0  0  0
 16 18  1  0  0  0  0
 17 19  2  0  0  0  0
 17 16  1  0  0  0  0
 18 20  1  0  0  0  0
 19 21  1  0  0  0  0
 21 24  1  0  0  0  0
 21 18  2  0  0  0  0
 22 19  1  0  0  0  0
 22 25  2  0  0  0  0
 23 20  1  0  0  0  0
 23 34  1  0  0  0  0
 24 23  2  0  0  0  0
 26 28  1  0  0  0  0
 26 22  1  0  0  0  0
 27 25  1  0  0  0  0
 27 36  1  0  0  0  0
 28 27  2  0  0  0  0
 32  5  1  0  0  0  0
 35 24  1  0  0  0  0
 37 28  1  0  0  0  0
M  END
$$$$
scan_sander_basal/min_pdbs/min_pdb_C271_135.pdb
 OpenBabel09051719303D

 37 42  0  0  1  0  0  0  0  0999 V2000
    0.1910   -0.0370    0.5880 C   0  0  0  0  0  0  0  0  0  0  0  0
    1.1180    0.3730    1.5600 C   0  0  0  0  0  0  0  0  0  0  0  0
   -0.1370    0.7280   -0.4710 N   0  0  0  0  0  0  0  0  0  0  0  0
    1.7290    1.6300    1.4300 C   0  0  0  0  0  0  0  0  0  0  0  0
    0.4490    1.9370   -0.5920 C   0  0  0  0  0  0  0  0  0  0  0  0
    1.3940    2.4560    0.3300 C   0  0  0  0  0  0  0  0  0  0  0  0
    2.0390    3.7930    0.1450 C   0  0  0  0  0  0  0  0  0  0  0  0
    3.4240    3.9660    0.3630 C   0  0  0  0  0  0  0  0  0  0  0  0
    1.3370    4.9560   -0.2450 C   0  0  0  0  0  0  0  0  0  0  0  0
    4.0650    5.1400    0.2120 N   0  0  0  0  0  0  0  0  0  0  0  0
    0.0090    4.9890   -0.4760 N   0  0  0  0  0  0  0  0  0  0  0  0
    1.9940    6.1720   -0.4000 C   0  0  0  0  0  0  0  0  0  0  0  0
    3.3930    6.2520   -0.1630 C   0  0  0  0  0  0  0  0  0  0  0  0
   -0.3170    6.5370   -0.8800 S   0  0  0  0  0  0  0  0  0  0  0  0
    1.1800    7.1880   -0.7710 N   0  0  0  0  0  0  0  0  0  0  0  0
    4.1670    7.5110   -0.3080 C   0  0  1  0  0  0  0  0  0  0  0  0
    3.5140    9.1070   -0.7660 B   0  0  0  0  0  0  0  0  0  0  0  0
    5.5330    7.6340   -0.1020 C   0  0  0  0  0  0  0  0  0  0  0  0
    5.1000    9.8670   -0.6370 C   0  0  0  0  0  0  0  0  0  0  0  0
    6.7440    6.4420    0.3160 S   0  0  0  0  0  0  0  0  0  0  0  0
    6.0230    8.9200   -0.2970 C   0  0  0  0  0  0  0  0  0  0  0  0
    5.4300   11.2230   -0.9630 C   0  0  0  0  0  0  0  0  0  0  0  0
    7.9650    7.7430    0.2070 C   0  0  0  0  0  0  0  0  0  0  0  0
    7.4340    8.9810   -0.1260 C   0  0  0  0  0  0  0  0  0  0  0  0
    6.1840   11.8910   -0.1100 C   0  0  0  0  0  0  0  0  0  0  0  0
    4.7680   12.1040   -2.3170 S   0  0  0  0  0  0  0  0  0  0  0  0
    6.3280   13.1910   -0.5410 C   0  0  0  0  0  0  0  0  0  0  0  0
    5.6490   13.4840   -1.7030 C   0  0  0  0  0  0  0  0  0  0  0  0
   -0.3020   -1.0060    0.6570 H   0  0  0  0  0  0  0  0  0  0  0  0
    1.3550   -0.2750    2.3990 H   0  0  0  0  0  0  0  0  0  0  0  0
    2.4450    1.9680    2.1740 H   0  0  0  0  0  0  0  0  0  0  0  0
    0.1630    2.5140   -1.4700 H   0  0  0  0  0  0  0  0  0  0  0  0
    4.0450    3.1210    0.6600 H   0  0  0  0  0  0  0  0  0  0  0  0
    9.0020    7.4970    0.3980 H   0  0  0  0  0  0  0  0  0  0  0  0
    8.0180    9.8880   -0.2400 H   0  0  0  0  0  0  0  0  0  0  0  0
    6.9360   13.8740    0.0410 H   0  0  0  0  0  0  0  0  0  0  0  0
    5.6050   14.4260   -2.2330 H   0  0  0  0  0  0  0  0  0  0  0  0
  1 29  1  0  0  0  0
  1  2  2  0  0  0  0
  2 30  1  0  0  0  0
  3  1  1  0  0  0  0
  4  2  1  0  0  0  0
  4 31  1  0  0  0  0
  5  3  2  0  0  0  0
  5  6  1  0  0  0  0
  6  4  2  0  0  0  0
  7  6  1  0  0  0  0
  7  8  2  0  0  0  0
  8 33  1  0  0  0  0
  9  7  1  0  0  0  0
 10  8  1  0  0  0  0
 11  9  2  0  0  0  0
 12  9  1  0  0  0  0
 12 13  1  0  0  0  0
 13 10  2  0  0  0  0
 14 15  1  0  0  0  0
 14 11  1  0  0  0  0
 15 12  2  0  0  0  0
 16 13  1  1  0  0  0
 16 18  1  0  0  0  0
 17 19  2  0  0  0  0
 17 16  1  0  0  0  0
 18 20  1  0  0  0  0
 19 21  1  0  0  0  0
 21 24  1  0  0  0  0
 21 18  2  0  0  0  0
 22 19  1  0  0  0  0
 22 25  2  0  0  0  0
 23 20  1  0  0  0  0
 23 34  1  0  0  0  0
 24 23  2  0  0  0  0
 26 28  1  0  0  0  0
 26 22  1  0  0  0  0
 27 25  1  0  0  0  0
 27 36  1  0  0  0  0
 28 27  2  0  0  0  0
 32  5  1  0  0  0  0
 35 24  1  0  0  0  0
 37 28  1  0  0  0  0
M  END
$$$$
scan_sander_basal/min_pdbs/min_pdb_C271_150.pdb
 OpenBabel09051719303D

 37 42  0  0  1  0  0  0  0  0999 V2000
    0.1940   -0.0400    0.5740 C   0  0  0  0  0  0  0  0  0  0  0  0
    1.0970    0.3800    1.5630 C   0  0  0  0  0  0  0  0  0  0  0  0
   -0.1100    0.7140   -0.5000 N   0  0  0  0  0  0  0  0  0  0  0  0
    1.7090    1.6380    1.4350 C   0  0  0  0  0  0  0  0  0  0  0  0
    0.4760    1.9230   -0.6190 C   0  0  0  0  0  0  0  0  0  0  0  0
    1.3980    2.4520    0.3210 C   0  0  0  0  0  0  0  0  0  0  0  0
    2.0450    3.7900    0.1380 C   0  0  0  0  0  0  0  0  0  0  0  0
    3.4230    3.9670    0.3860 C   0  0  0  0  0  0  0  0  0  0  0  0
    1.3500    4.9470   -0.2800 C   0  0  0  0  0  0  0  0  0  0  0  0
    4.0660    5.1410    0.2390 N   0  0  0  0  0  0  0  0  0  0  0  0
    0.0280    4.9750   -0.5410 N   0  0  0  0  0  0  0  0  0  0  0  0
    2.0080    6.1630   -0.4300 C   0  0  0  0  0  0  0  0  0  0  0  0
    3.4010    6.2480   -0.1620 C   0  0  0  0  0  0  0  0  0  0  0  0
   -0.2920    6.5180   -0.9680 S   0  0  0  0  0  0  0  0  0  0  0  0
    1.2010    7.1740   -0.8300 N   0  0  0  0  0  0  0  0  0  0  0  0
    4.1760    7.5080   -0.3010 C   0  0  1  0  0  0  0  0  0  0  0  0
    3.5300    9.0950   -0.7900 B   0  0  0  0  0  0  0  0  0  0  0  0
    5.5360    7.6380   -0.0660 C   0  0  0  0  0  0  0  0  0  0  0  0
    5.1060    9.8710   -0.6230 C   0  0  0  0  0  0  0  0  0  0  0  0
    6.7370    6.4470    0.3810 S   0  0  0  0  0  0  0  0  0  0  0  0
    6.0280    8.9260   -0.2600 C   0  0  0  0  0  0  0  0  0  0  0  0
    5.4090   11.2340   -0.9580 C   0  0  0  0  0  0  0  0  0  0  0  0
    7.9610    7.7430    0.2840 C   0  0  0  0  0  0  0  0  0  0  0  0
    7.4390    8.9800   -0.0650 C   0  0  0  0  0  0  0  0  0  0  0  0
    6.3580   11.8540   -0.2800 C   0  0  0  0  0  0  0  0  0  0  0  0
    4.4780   12.1950   -2.0830 S   0  0  0  0  0  0  0  0  0  0  0  0
    6.4380   13.1690   -0.6800 C   0  0  0  0  0  0  0  0  0  0  0  0
    5.5180   13.5280   -1.6400 C   0  0  0  0  0  0  0  0  0  0  0  0
   -0.2980   -1.0100    0.6400 H   0  0  0  0  0  0  0  0  0  0  0  0
    1.3160   -0.2590    2.4130 H   0  0  0  0  0  0  0  0  0  0  0  0
    2.4070    1.9840    2.1930 H   0  0  0  0  0  0  0  0  0  0  0  0
    0.2100    2.4910   -1.5090 H   0  0  0  0  0  0  0  0  0  0  0  0
    4.0400    3.1270    0.7060 H   0  0  0  0  0  0  0  0  0  0  0  0
    8.9940    7.4960    0.4910 H   0  0  0  0  0  0  0  0  0  0  0  0
    8.0340    9.8790   -0.1780 H   0  0  0  0  0  0  0  0  0  0  0  0
    7.1840   13.8110   -0.2290 H   0  0  0  0  0  0  0  0  0  0  0  0
    5.3810   14.4930   -2.1080 H   0  0  0  0  0  0  0  0  0  0  0  0
  1 29  1  0  0  0  0
  1  2  2  0  0  0  0
  2 30  1  0  0  0  0
  3  1  1  0  0  0  0
  4  2  1  0  0  0  0
  4 31  1  0  0  0  0
  5  3  2  0  0  0  0
  5  6  1  0  0  0  0
  6  4  2  0  0  0  0
  7  6  1  0  0  0  0
  7  8  2  0  0  0  0
  8 33  1  0  0  0  0
  9  7  1  0  0  0  0
 10  8  1  0  0  0  0
 11  9  2  0  0  0  0
 12  9  1  0  0  0  0
 12 13  1  0  0  0  0
 13 10  2  0  0  0  0
 14 15  1  0  0  0  0
 14 11  1  0  0  0  0
 15 12  2  0  0  0  0
 16 13  1  1  0  0  0
 16 18  1  0  0  0  0
 17 19  2  0  0  0  0
 17 16  1  0  0  0  0
 18 20  1  0  0  0  0
 19 21  1  0  0  0  0
 21 18  2  0  0  0  0
 21 24  1  0  0  0  0
 22 19  1  0  0  0  0
 22 25  2  0  0  0  0
 23 20  1  0  0  0  0
 23 34  1  0  0  0  0
 24 23  2  0  0  0  0
 26 28  1  0  0  0  0
 26 22  1  0  0  0  0
 27 25  1  0  0  0  0
 27 36  1  0  0  0  0
 28 27  2  0  0  0  0
 32  5  1  0  0  0  0
 35 24  1  0  0  0  0
 37 28  1  0  0  0  0
M  END
$$$$
scan_sander_basal/min_pdbs/min_pdb_C271_165.pdb
 OpenBabel09051719303D

 37 42  0  0  1  0  0  0  0  0999 V2000
    0.1950   -0.0420    0.5610 C   0  0  0  0  0  0  0  0  0  0  0  0
    1.0810    0.3860    1.5640 C   0  0  0  0  0  0  0  0  0  0  0  0
   -0.0910    0.7040   -0.5220 N   0  0  0  0  0  0  0  0  0  0  0  0
    1.6930    1.6430    1.4380 C   0  0  0  0  0  0  0  0  0  0  0  0
    0.4960    1.9130   -0.6390 C   0  0  0  0  0  0  0  0  0  0  0  0
    1.4010    2.4490    0.3120 C   0  0  0  0  0  0  0  0  0  0  0  0
    2.0490    3.7860    0.1320 C   0  0  0  0  0  0  0  0  0  0  0  0
    3.4230    3.9670    0.4030 C   0  0  0  0  0  0  0  0  0  0  0  0
    1.3610    4.9400   -0.3060 C   0  0  0  0  0  0  0  0  0  0  0  0
    4.0670    5.1410    0.2580 N   0  0  0  0  0  0  0  0  0  0  0  0
    0.0440    4.9640   -0.5910 N   0  0  0  0  0  0  0  0  0  0  0  0
    2.0200    6.1560   -0.4540 C   0  0  0  0  0  0  0  0  0  0  0  0
    3.4080    6.2440   -0.1620 C   0  0  0  0  0  0  0  0  0  0  0  0
   -0.2710    6.5040   -1.0350 S   0  0  0  0  0  0  0  0  0  0  0  0
    1.2190    7.1630   -0.8750 N   0  0  0  0  0  0  0  0  0  0  0  0
    4.1840    7.5040   -0.2970 C   0  0  1  0  0  0  0  0  0  0  0  0
    3.5440    9.0850   -0.8080 B   0  0  0  0  0  0  0  0  0  0  0  0
    5.5400    7.6410   -0.0400 C   0  0  0  0  0  0  0  0  0  0  0  0
    5.1150    9.8700   -0.6290 C   0  0  0  0  0  0  0  0  0  0  0  0
    6.7260    6.4530    0.4510 S   0  0  0  0  0  0  0  0  0  0  0  0
    6.0350    8.9290   -0.2350 C   0  0  0  0  0  0  0  0  0  0  0  0
    5.3840   11.2480   -0.9460 C   0  0  0  0  0  0  0  0  0  0  0  0
    7.9520    7.7470    0.3770 C   0  0  0  0  0  0  0  0  0  0  0  0
    7.4410    8.9800    0.0030 C   0  0  0  0  0  0  0  0  0  0  0  0
    6.4930   11.8120   -0.5050 C   0  0  0  0  0  0  0  0  0  0  0  0
    4.2570   12.2820   -1.7930 S   0  0  0  0  0  0  0  0  0  0  0  0
    6.5250   13.1410   -0.8660 C   0  0  0  0  0  0  0  0  0  0  0  0
    5.4190   13.5670   -1.5640 C   0  0  0  0  0  0  0  0  0  0  0  0
   -0.2970   -1.0120    0.6260 H   0  0  0  0  0  0  0  0  0  0  0  0
    1.2850   -0.2480    2.4220 H   0  0  0  0  0  0  0  0  0  0  0  0
    2.3770    1.9950    2.2050 H   0  0  0  0  0  0  0  0  0  0  0  0
    0.2450    2.4740   -1.5380 H   0  0  0  0  0  0  0  0  0  0  0  0
    4.0340    3.1300    0.7390 H   0  0  0  0  0  0  0  0  0  0  0  0
    8.9790    7.5020    0.6160 H   0  0  0  0  0  0  0  0  0  0  0  0
    8.0470    9.8730   -0.0980 H   0  0  0  0  0  0  0  0  0  0  0  0
    7.3830   13.7410   -0.5860 H   0  0  0  0  0  0  0  0  0  0  0  0
    5.2100   14.5550   -1.9520 H   0  0  0  0  0  0  0  0  0  0  0  0
  1 29  1  0  0  0  0
  1  2  2  0  0  0  0
  2 30  1  0  0  0  0
  3  1  1  0  0  0  0
  4  2  1  0  0  0  0
  4 31  1  0  0  0  0
  5  3  2  0  0  0  0
  5  6  1  0  0  0  0
  6  4  2  0  0  0  0
  7  6  1  0  0  0  0
  7  8  2  0  0  0  0
  8 33  1  0  0  0  0
  9  7  1  0  0  0  0
 10  8  1  0  0  0  0
 11  9  2  0  0  0  0
 12  9  1  0  0  0  0
 12 13  1  0  0  0  0
 13 10  2  0  0  0  0
 14 15  1  0  0  0  0
 14 11  1  0  0  0  0
 15 12  2  0  0  0  0
 16 13  1  1  0  0  0
 16 18  1  0  0  0  0
 17 19  2  0  0  0  0
 17 16  1  0  0  0  0
 18 20  1  0  0  0  0
 19 21  1  0  0  0  0
 21 18  2  0  0  0  0
 21 24  1  0  0  0  0
 22 19  1  0  0  0  0
 22 25  2  0  0  0  0
 23 20  1  0  0  0  0
 23 34  1  0  0  0  0
 24 23  2  0  0  0  0
 26 28  1  0  0  0  0
 26 22  1  0  0  0  0
 27 36  1  0  0  0  0
 27 25  1  0  0  0  0
 28 27  2  0  0  0  0
 32  5  1  0  0  0  0
 35 24  1  0  0  0  0
 37 28  1  0  0  0  0
M  END
$$$$
scan_sander_basal/min_pdbs/min_pdb_C271_180.pdb
 OpenBabel09051719303D

 37 42  0  0  1  0  0  0  0  0999 V2000
    0.2000   -0.0470    0.5390 C   0  0  0  0  0  0  0  0  0  0  0  0
    1.0740    0.3830    1.5500 C   0  0  0  0  0  0  0  0  0  0  0  0
   -0.0760    0.6970   -0.5490 N   0  0  0  0  0  0  0  0  0  0  0  0
    1.6850    1.6410    1.4300 C   0  0  0  0  0  0  0  0  0  0  0  0
    0.5110    1.9070   -0.6610 C   0  0  0  0  0  0  0  0  0  0  0  0
    1.4040    2.4460    0.3000 C   0  0  0  0  0  0  0  0  0  0  0  0
    2.0520    3.7840    0.1260 C   0  0  0  0  0  0  0  0  0  0  0  0
    3.4230    3.9670    0.4110 C   0  0  0  0  0  0  0  0  0  0  0  0
    1.3670    4.9360   -0.3210 C   0  0  0  0  0  0  0  0  0  0  0  0
    4.0660    5.1420    0.2720 N   0  0  0  0  0  0  0  0  0  0  0  0
    0.0530    4.9580   -0.6200 N   0  0  0  0  0  0  0  0  0  0  0  0
    2.0260    6.1530   -0.4630 C   0  0  0  0  0  0  0  0  0  0  0  0
    3.4110    6.2440   -0.1580 C   0  0  0  0  0  0  0  0  0  0  0  0
   -0.2600    6.4970   -1.0690 S   0  0  0  0  0  0  0  0  0  0  0  0
    1.2270    7.1580   -0.8930 N   0  0  0  0  0  0  0  0  0  0  0  0
    4.1860    7.5050   -0.2870 C   0  0  1  0  0  0  0  0  0  0  0  0
    3.5490    9.0820   -0.8070 B   0  0  0  0  0  0  0  0  0  0  0  0
    5.5390    7.6450   -0.0170 C   0  0  0  0  0  0  0  0  0  0  0  0
    5.1220    9.8660   -0.6430 C   0  0  0  0  0  0  0  0  0  0  0  0
    6.7120    6.4660    0.5250 S   0  0  0  0  0  0  0  0  0  0  0  0
    6.0360    8.9330   -0.2150 C   0  0  0  0  0  0  0  0  0  0  0  0
    5.3690   11.2580   -0.9230 C   0  0  0  0  0  0  0  0  0  0  0  0
    7.9330    7.7650    0.4880 C   0  0  0  0  0  0  0  0  0  0  0  0
    7.4310    8.9930    0.0820 C   0  0  0  0  0  0  0  0  0  0  0  0
    6.5820   11.7570   -0.7710 C   0  0  0  0  0  0  0  0  0  0  0  0
    4.1280   12.3650   -1.4660 S   0  0  0  0  0  0  0  0  0  0  0  0
    6.5900   13.0960   -1.0910 C   0  0  0  0  0  0  0  0  0  0  0  0
    5.3690   13.5940   -1.4840 C   0  0  0  0  0  0  0  0  0  0  0  0
   -0.2920   -1.0180    0.5990 H   0  0  0  0  0  0  0  0  0  0  0  0
    1.2700   -0.2490    2.4110 H   0  0  0  0  0  0  0  0  0  0  0  0
    2.3600    1.9950    2.2040 H   0  0  0  0  0  0  0  0  0  0  0  0
    0.2680    2.4670   -1.5630 H   0  0  0  0  0  0  0  0  0  0  0  0
    4.0320    3.1310    0.7550 H   0  0  0  0  0  0  0  0  0  0  0  0
    8.9500    7.5280    0.7710 H   0  0  0  0  0  0  0  0  0  0  0  0
    8.0380    9.8860    0.0040 H   0  0  0  0  0  0  0  0  0  0  0  0
    7.5190   13.6490   -1.0170 H   0  0  0  0  0  0  0  0  0  0  0  0
    5.1210   14.6030   -1.7830 H   0  0  0  0  0  0  0  0  0  0  0  0
  1 29  1  0  0  0  0
  1  2  2  0  0  0  0
  2 30  1  0  0  0  0
  3  1  1  0  0  0  0
  4  2  1  0  0  0  0
  4 31  1  0  0  0  0
  5  3  2  0  0  0  0
  5  6  1  0  0  0  0
  6  4  2  0  0  0  0
  7  6  1  0  0  0  0
  7  8  2  0  0  0  0
  8 33  1  0  0  0  0
  9  7  1  0  0  0  0
 10  8  1  0  0  0  0
 11  9  2  0  0  0  0
 12  9  1  0  0  0  0
 12 13  1  0  0  0  0
 13 10  2  0  0  0  0
 14 15  1  0  0  0  0
 14 11  1  0  0  0  0
 15 12  2  0  0  0  0
 16 13  1  1  0  0  0
 16 18  1  0  0  0  0
 17 19  2  0  0  0  0
 17 16  1  0  0  0  0
 18 20  1  0  0  0  0
 19 21  1  0  0  0  0
 21 18  2  0  0  0  0
 21 24  1  0  0  0  0
 22 25  2  0  0  0  0
 22 19  1  0  0  0  0
 23 20  1  0  0  0  0
 23 34  1  0  0  0  0
 24 23  2  0  0  0  0
 26 22  1  0  0  0  0
 27 36  1  0  0  0  0
 27 25  1  0  0  0  0
 28 26  1  0  0  0  0
 28 27  2  0  0  0  0
 32  5  1  0  0  0  0
 35 24  1  0  0  0  0
 37 28  1  0  0  0  0
M  END
$$$$
scan_sander_basal/min_pdbs/min_pdb_C271_195.pdb
 OpenBabel09051719303D

 37 42  0  0  1  0  0  0  0  0999 V2000
    0.2100   -0.0530    0.5270 C   0  0  0  0  0  0  0  0  0  0  0  0
    1.0740    0.3820    1.5440 C   0  0  0  0  0  0  0  0  0  0  0  0
   -0.0590    0.6870   -0.5650 N   0  0  0  0  0  0  0  0  0  0  0  0
    1.6830    1.6420    1.4250 C   0  0  0  0  0  0  0  0  0  0  0  0
    0.5250    1.8990   -0.6750 C   0  0  0  0  0  0  0  0  0  0  0  0
    1.4090    2.4430    0.2910 C   0  0  0  0  0  0  0  0  0  0  0  0
    2.0550    3.7820    0.1190 C   0  0  0  0  0  0  0  0  0  0  0  0
    3.4230    3.9690    0.4140 C   0  0  0  0  0  0  0  0  0  0  0  0
    1.3700    4.9310   -0.3360 C   0  0  0  0  0  0  0  0  0  0  0  0
    4.0640    5.1460    0.2780 N   0  0  0  0  0  0  0  0  0  0  0  0
    0.0580    4.9480   -0.6460 N   0  0  0  0  0  0  0  0  0  0  0  0
    2.0260    6.1490   -0.4760 C   0  0  0  0  0  0  0  0  0  0  0  0
    3.4080    6.2450   -0.1590 C   0  0  0  0  0  0  0  0  0  0  0  0
   -0.2550    6.4850   -1.1020 S   0  0  0  0  0  0  0  0  0  0  0  0
    1.2280    7.1510   -0.9140 N   0  0  0  0  0  0  0  0  0  0  0  0
    4.1810    7.5080   -0.2840 C   0  0  1  0  0  0  0  0  0  0  0  0
    3.5440    9.0830   -0.8130 B   0  0  0  0  0  0  0  0  0  0  0  0
    5.5310    7.6510   -0.0030 C   0  0  0  0  0  0  0  0  0  0  0  0
    5.1210    9.8630   -0.6620 C   0  0  0  0  0  0  0  0  0  0  0  0
    6.6970    6.4880    0.5870 S   0  0  0  0  0  0  0  0  0  0  0  0
    6.0270    8.9390   -0.2030 C   0  0  0  0  0  0  0  0  0  0  0  0
    5.3690   11.2620   -0.8940 C   0  0  0  0  0  0  0  0  0  0  0  0
    7.9070    7.7990    0.5820 C   0  0  0  0  0  0  0  0  0  0  0  0
    7.4080    9.0180    0.1480 C   0  0  0  0  0  0  0  0  0  0  0  0
    6.6110   11.6850   -1.0470 C   0  0  0  0  0  0  0  0  0  0  0  0
    4.1010   12.4450   -1.1120 S   0  0  0  0  0  0  0  0  0  0  0  0
    6.6210   13.0350   -1.3160 C   0  0  0  0  0  0  0  0  0  0  0  0
    5.3730   13.6110   -1.3830 C   0  0  0  0  0  0  0  0  0  0  0  0
   -0.2800   -1.0250    0.5860 H   0  0  0  0  0  0  0  0  0  0  0  0
    1.2650   -0.2470    2.4080 H   0  0  0  0  0  0  0  0  0  0  0  0
    2.3510    1.9990    2.2040 H   0  0  0  0  0  0  0  0  0  0  0  0
    0.2880    2.4560   -1.5800 H   0  0  0  0  0  0  0  0  0  0  0  0
    4.0310    3.1360    0.7650 H   0  0  0  0  0  0  0  0  0  0  0  0
    8.9140    7.5750    0.9070 H   0  0  0  0  0  0  0  0  0  0  0  0
    8.0040    9.9200    0.0870 H   0  0  0  0  0  0  0  0  0  0  0  0
    7.5720   13.5360   -1.4560 H   0  0  0  0  0  0  0  0  0  0  0  0
    5.1220   14.6440   -1.5810 H   0  0  0  0  0  0  0  0  0  0  0  0
  1 29  1  0  0  0  0
  1  2  2  0  0  0  0
  2 30  1  0  0  0  0
  3  1  1  0  0  0  0
  4  2  1  0  0  0  0
  4 31  1  0  0  0  0
  5  3  2  0  0  0  0
  5  6  1  0  0  0  0
  6  4  2  0  0  0  0
  7  6  1  0  0  0  0
  7  8  2  0  0  0  0
  8 33  1  0  0  0  0
  9  7  1  0  0  0  0
 10  8  1  0  0  0  0
 11  9  2  0  0  0  0
 12  9  1  0  0  0  0
 12 13  1  0  0  0  0
 13 10  2  0  0  0  0
 14 15  1  0  0  0  0
 14 11  1  0  0  0  0
 15 12  2  0  0  0  0
 16 13  1  1  0  0  0
 16 18  1  0  0  0  0
 17 19  2  0  0  0  0
 17 16  1  0  0  0  0
 18 20  1  0  0  0  0
 19 21  1  0  0  0  0
 21 18  2  0  0  0  0
 21 24  1  0  0  0  0
 22 19  1  0  0  0  0
 23 20  1  0  0  0  0
 23 34  1  0  0  0  0
 24 23  2  0  0  0  0
 25 22  2  0  0  0  0
 26 22  1  0  0  0  0
 27 25  1  0  0  0  0
 28 27  2  0  0  0  0
 28 26  1  0  0  0  0
 32  5  1  0  0  0  0
 35 24  1  0  0  0  0
 36 27  1  0  0  0  0
 37 28  1  0  0  0  0
M  END
$$$$
scan_sander_basal/min_pdbs/min_pdb_C271_210.pdb
 OpenBabel09051719303D

 37 42  0  0  1  0  0  0  0  0999 V2000
    0.2230   -0.0600    0.5260 C   0  0  0  0  0  0  0  0  0  0  0  0
    1.0760    0.3830    1.5490 C   0  0  0  0  0  0  0  0  0  0  0  0
   -0.0400    0.6750   -0.5710 N   0  0  0  0  0  0  0  0  0  0  0  0
    1.6810    1.6450    1.4290 C   0  0  0  0  0  0  0  0  0  0  0  0
    0.5400    1.8880   -0.6820 C   0  0  0  0  0  0  0  0  0  0  0  0
    1.4140    2.4400    0.2900 C   0  0  0  0  0  0  0  0  0  0  0  0
    2.0560    3.7810    0.1160 C   0  0  0  0  0  0  0  0  0  0  0  0
    3.4210    3.9750    0.4230 C   0  0  0  0  0  0  0  0  0  0  0  0
    1.3700    4.9250   -0.3500 C   0  0  0  0  0  0  0  0  0  0  0  0
    4.0580    5.1530    0.2870 N   0  0  0  0  0  0  0  0  0  0  0  0
    0.0620    4.9360   -0.6710 N   0  0  0  0  0  0  0  0  0  0  0  0
    2.0240    6.1450   -0.4890 C   0  0  0  0  0  0  0  0  0  0  0  0
    3.4020    6.2470   -0.1610 C   0  0  0  0  0  0  0  0  0  0  0  0
   -0.2530    6.4700   -1.1360 S   0  0  0  0  0  0  0  0  0  0  0  0
    1.2250    7.1420   -0.9380 N   0  0  0  0  0  0  0  0  0  0  0  0
    4.1720    7.5120   -0.2860 C   0  0  1  0  0  0  0  0  0  0  0  0
    3.5340    9.0850   -0.8280 B   0  0  0  0  0  0  0  0  0  0  0  0
    5.5190    7.6590    0.0070 C   0  0  0  0  0  0  0  0  0  0  0  0
    5.1110    9.8620   -0.6730 C   0  0  0  0  0  0  0  0  0  0  0  0
    6.6850    6.5110    0.6260 S   0  0  0  0  0  0  0  0  0  0  0  0
    6.0110    8.9450   -0.1960 C   0  0  0  0  0  0  0  0  0  0  0  0
    5.3810   11.2590   -0.8690 C   0  0  0  0  0  0  0  0  0  0  0  0
    7.8840    7.8340    0.6330 C   0  0  0  0  0  0  0  0  0  0  0  0
    7.3820    9.0450    0.1790 C   0  0  0  0  0  0  0  0  0  0  0  0
    6.5740   11.6140   -1.3100 C   0  0  0  0  0  0  0  0  0  0  0  0
    4.1730   12.5150   -0.7390 S   0  0  0  0  0  0  0  0  0  0  0  0
    6.6090   12.9750   -1.5200 C   0  0  0  0  0  0  0  0  0  0  0  0
    5.4220   13.6220   -1.2600 C   0  0  0  0  0  0  0  0  0  0  0  0
   -0.2640   -1.0330    0.5850 H   0  0  0  0  0  0  0  0  0  0  0  0
    1.2620   -0.2410    2.4170 H   0  0  0  0  0  0  0  0  0  0  0  0
    2.3410    2.0090    2.2120 H   0  0  0  0  0  0  0  0  0  0  0  0
    0.3090    2.4400   -1.5920 H   0  0  0  0  0  0  0  0  0  0  0  0
    4.0290    3.1460    0.7830 H   0  0  0  0  0  0  0  0  0  0  0  0
    8.8870    7.6220    0.9770 H   0  0  0  0  0  0  0  0  0  0  0  0
    7.9630    9.9580    0.1190 H   0  0  0  0  0  0  0  0  0  0  0  0
    7.5290   13.4290   -1.8670 H   0  0  0  0  0  0  0  0  0  0  0  0
    5.2000   14.6760   -1.3510 H   0  0  0  0  0  0  0  0  0  0  0  0
  1 29  1  0  0  0  0
  1  2  2  0  0  0  0
  2 30  1  0  0  0  0
  3  1  1  0  0  0  0
  4  2  1  0  0  0  0
  4 31  1  0  0  0  0
  5  3  2  0  0  0  0
  5  6  1  0  0  0  0
  6  4  2  0  0  0  0
  7  6  1  0  0  0  0
  7  8  2  0  0  0  0
  8 33  1  0  0  0  0
  9  7  1  0  0  0  0
 10  8  1  0  0  0  0
 11  9  2  0  0  0  0
 12  9  1  0  0  0  0
 12 13  1  0  0  0  0
 13 10  2  0  0  0  0
 14 15  1  0  0  0  0
 14 11  1  0  0  0  0
 15 12  2  0  0  0  0
 16 13  1  1  0  0  0
 16 18  1  0  0  0  0
 17 19  2  0  0  0  0
 17 16  1  0  0  0  0
 18 20  1  0  0  0  0
 19 21  1  0  0  0  0
 20 23  1  0  0  0  0
 21 18  2  0  0  0  0
 21 24  1  0  0  0  0
 22 26  1  0  0  0  0
 22 19  1  0  0  0  0
 23 34  1  0  0  0  0
 24 23  2  0  0  0  0
 25 22  2  0  0  0  0
 27 25  1  0  0  0  0
 27 28  2  0  0  0  0
 28 26  1  0  0  0  0
 32  5  1  0  0  0  0
 35 24  1  0  0  0  0
 36 27  1  0  0  0  0
 37 28  1  0  0  0  0
M  END
$$$$
scan_sander_basal/min_pdbs/min_pdb_C271_225.pdb
 OpenBabel09051719303D

 37 42  0  0  1  0  0  0  0  0999 V2000
    0.2370   -0.0660    0.5340 C   0  0  0  0  0  0  0  0  0  0  0  0
    1.0790    0.3870    1.5620 C   0  0  0  0  0  0  0  0  0  0  0  0
   -0.0180    0.6600   -0.5710 N   0  0  0  0  0  0  0  0  0  0  0  0
    1.6790    1.6500    1.4410 C   0  0  0  0  0  0  0  0  0  0  0  0
    0.5580    1.8750   -0.6840 C   0  0  0  0  0  0  0  0  0  0  0  0
    1.4200    2.4370    0.2930 C   0  0  0  0  0  0  0  0  0  0  0  0
    2.0580    3.7800    0.1180 C   0  0  0  0  0  0  0  0  0  0  0  0
    3.4180    3.9820    0.4370 C   0  0  0  0  0  0  0  0  0  0  0  0
    1.3710    4.9180   -0.3630 C   0  0  0  0  0  0  0  0  0  0  0  0
    4.0520    5.1620    0.2990 N   0  0  0  0  0  0  0  0  0  0  0  0
    0.0660    4.9210   -0.6970 N   0  0  0  0  0  0  0  0  0  0  0  0
    2.0210    6.1400   -0.5030 C   0  0  0  0  0  0  0  0  0  0  0  0
    3.3950    6.2500   -0.1630 C   0  0  0  0  0  0  0  0  0  0  0  0
   -0.2510    6.4500   -1.1750 S   0  0  0  0  0  0  0  0  0  0  0  0
    1.2230    7.1310   -0.9660 N   0  0  0  0  0  0  0  0  0  0  0  0
    4.1610    7.5170   -0.2880 C   0  0  1  0  0  0  0  0  0  0  0  0
    3.5230    9.0870   -0.8480 B   0  0  0  0  0  0  0  0  0  0  0  0
    5.5050    7.6690    0.0180 C   0  0  0  0  0  0  0  0  0  0  0  0
    5.0940    9.8650   -0.6680 C   0  0  0  0  0  0  0  0  0  0  0  0
    6.6760    6.5310    0.6460 S   0  0  0  0  0  0  0  0  0  0  0  0
    5.9910    8.9550   -0.1860 C   0  0  0  0  0  0  0  0  0  0  0  0
    5.3900   11.2540   -0.8580 C   0  0  0  0  0  0  0  0  0  0  0  0
    7.8690    7.8630    0.6480 C   0  0  0  0  0  0  0  0  0  0  0  0
    7.3600    9.0690    0.1880 C   0  0  0  0  0  0  0  0  0  0  0  0
    6.4700   11.5620   -1.5500 C   0  0  0  0  0  0  0  0  0  0  0  0
    4.3360   12.5630   -0.3820 S   0  0  0  0  0  0  0  0  0  0  0  0
    6.5490   12.9290   -1.7000 C   0  0  0  0  0  0  0  0  0  0  0  0
    5.5030   13.6250   -1.1360 C   0  0  0  0  0  0  0  0  0  0  0  0
   -0.2460   -1.0410    0.5940 H   0  0  0  0  0  0  0  0  0  0  0  0
    1.2590   -0.2310    2.4360 H   0  0  0  0  0  0  0  0  0  0  0  0
    2.3300    2.0220    2.2270 H   0  0  0  0  0  0  0  0  0  0  0  0
    0.3340    2.4200   -1.5990 H   0  0  0  0  0  0  0  0  0  0  0  0
    4.0270    3.1580    0.8080 H   0  0  0  0  0  0  0  0  0  0  0  0
    8.8740    7.6580    0.9930 H   0  0  0  0  0  0  0  0  0  0  0  0
    7.9300    9.9890    0.1170 H   0  0  0  0  0  0  0  0  0  0  0  0
    7.3920   13.3510   -2.2340 H   0  0  0  0  0  0  0  0  0  0  0  0
    5.3400   14.6940   -1.1240 H   0  0  0  0  0  0  0  0  0  0  0  0
  1 29  1  0  0  0  0
  1  2  2  0  0  0  0
  2 30  1  0  0  0  0
  3  1  1  0  0  0  0
  4  2  1  0  0  0  0
  4 31  1  0  0  0  0
  5  3  2  0  0  0  0
  5  6  1  0  0  0  0
  6  4  2  0  0  0  0
  7  6  1  0  0  0  0
  7  8  2  0  0  0  0
  8 33  1  0  0  0  0
  9  7  1  0  0  0  0
 10  8  1  0  0  0  0
 11  9  2  0  0  0  0
 12  9  1  0  0  0  0
 12 13  1  0  0  0  0
 13 10  2  0  0  0  0
 14 15  1  0  0  0  0
 14 11  1  0  0  0  0
 15 12  2  0  0  0  0
 16 13  1  1  0  0  0
 16 18  1  0  0  0  0
 17 19  2  0  0  0  0
 17 16  1  0  0  0  0
 18 20  1  0  0  0  0
 19 21  1  0  0  0  0
 20 23  1  0  0  0  0
 21 18  2  0  0  0  0
 21 24  1  0  0  0  0
 22 19  1  0  0  0  0
 22 26  1  0  0  0  0
 23 34  1  0  0  0  0
 24 23  2  0  0  0  0
 25 22  2  0  0  0  0
 27 25  1  0  0  0  0
 27 28  2  0  0  0  0
 28 37  1  0  0  0  0
 28 26  1  0  0  0  0
 32  5  1  0  0  0  0
 35 24  1  0  0  0  0
 36 27  1  0  0  0  0
M  END
$$$$
scan_sander_basal/min_pdbs/min_pdb_C271_240.pdb
 OpenBabel09051719303D

 37 42  0  0  1  0  0  0  0  0999 V2000
    0.2530   -0.0740    0.5400 C   0  0  0  0  0  0  0  0  0  0  0  0
    1.0850    0.3880    1.5720 C   0  0  0  0  0  0  0  0  0  0  0  0
    0.0040    0.6470   -0.5700 N   0  0  0  0  0  0  0  0  0  0  0  0
    1.6810    1.6530    1.4500 C   0  0  0  0  0  0  0  0  0  0  0  0
    0.5750    1.8640   -0.6830 C   0  0  0  0  0  0  0  0  0  0  0  0
    1.4270    2.4340    0.2970 C   0  0  0  0  0  0  0  0  0  0  0  0
    2.0600    3.7780    0.1210 C   0  0  0  0  0  0  0  0  0  0  0  0
    3.4170    3.9880    0.4490 C   0  0  0  0  0  0  0  0  0  0  0  0
    1.3730    4.9120   -0.3690 C   0  0  0  0  0  0  0  0  0  0  0  0
    4.0470    5.1700    0.3120 N   0  0  0  0  0  0  0  0  0  0  0  0
    0.0690    4.9070   -0.7130 N   0  0  0  0  0  0  0  0  0  0  0  0
    2.0170    6.1360   -0.5100 C   0  0  0  0  0  0  0  0  0  0  0  0
    3.3890    6.2530   -0.1600 C   0  0  0  0  0  0  0  0  0  0  0  0
   -0.2500    6.4330   -1.2010 S   0  0  0  0  0  0  0  0  0  0  0  0
    1.2190    7.1210   -0.9830 N   0  0  0  0  0  0  0  0  0  0  0  0
    4.1500    7.5230   -0.2850 C   0  0  1  0  0  0  0  0  0  0  0  0
    3.5100    9.0890   -0.8560 B   0  0  0  0  0  0  0  0  0  0  0  0
    5.4920    7.6800    0.0310 C   0  0  0  0  0  0  0  0  0  0  0  0
    5.0740    9.8730   -0.6500 C   0  0  0  0  0  0  0  0  0  0  0  0
    6.6700    6.5480    0.6550 S   0  0  0  0  0  0  0  0  0  0  0  0
    5.9730    8.9670   -0.1700 C   0  0  0  0  0  0  0  0  0  0  0  0
    5.3900   11.2530   -0.8520 C   0  0  0  0  0  0  0  0  0  0  0  0
    7.8580    7.8850    0.6500 C   0  0  0  0  0  0  0  0  0  0  0  0
    7.3420    9.0900    0.1920 C   0  0  0  0  0  0  0  0  0  0  0  0
    6.3050   11.5350   -1.7600 C   0  0  0  0  0  0  0  0  0  0  0  0
    4.5800   12.5860   -0.0700 S   0  0  0  0  0  0  0  0  0  0  0  0
    6.4430   12.9010   -1.8610 C   0  0  0  0  0  0  0  0  0  0  0  0
    5.6090   13.6210   -1.0340 C   0  0  0  0  0  0  0  0  0  0  0  0
   -0.2250   -1.0510    0.6010 H   0  0  0  0  0  0  0  0  0  0  0  0
    1.2620   -0.2260    2.4510 H   0  0  0  0  0  0  0  0  0  0  0  0
    2.3240    2.0310    2.2400 H   0  0  0  0  0  0  0  0  0  0  0  0
    0.3550    2.4040   -1.6030 H   0  0  0  0  0  0  0  0  0  0  0  0
    4.0270    3.1680    0.8290 H   0  0  0  0  0  0  0  0  0  0  0  0
    8.8670    7.6840    0.9870 H   0  0  0  0  0  0  0  0  0  0  0  0
    7.9060   10.0130    0.1110 H   0  0  0  0  0  0  0  0  0  0  0  0
    7.1670   13.3060   -2.5580 H   0  0  0  0  0  0  0  0  0  0  0  0
    5.5310   14.6950   -0.9330 H   0  0  0  0  0  0  0  0  0  0  0  0
  1 29  1  0  0  0  0
  1  2  2  0  0  0  0
  2 30  1  0  0  0  0
  3  1  1  0  0  0  0
  4  2  1  0  0  0  0
  4 31  1  0  0  0  0
  5  3  2  0  0  0  0
  5  6  1  0  0  0  0
  6  4  2  0  0  0  0
  7  6  1  0  0  0  0
  7  8  2  0  0  0  0
  8 33  1  0  0  0  0
  9  7  1  0  0  0  0
 10  8  1  0  0  0  0
 11  9  2  0  0  0  0
 12  9  1  0  0  0  0
 12 13  1  0  0  0  0
 13 10  2  0  0  0  0
 14 15  1  0  0  0  0
 14 11  1  0  0  0  0
 15 12  2  0  0  0  0
 16 13  1  1  0  0  0
 16 18  1  0  0  0  0
 17 19  2  0  0  0  0
 17 16  1  0  0  0  0
 18 20  1  0  0  0  0
 19 21  1  0  0  0  0
 21 18  2  0  0  0  0
 21 24  1  0  0  0  0
 22 19  1  0  0  0  0
 22 26  1  0  0  0  0
 23 20  1  0  0  0  0
 23 34  1  0  0  0  0
 24 23  2  0  0  0  0
 25 22  2  0  0  0  0
 27 25  1  0  0  0  0
 27 28  2  0  0  0  0
 28 37  1  0  0  0  0
 28 26  1  0  0  0  0
 32  5  1  0  0  0  0
 35 24  1  0  0  0  0
 36 27  1  0  0  0  0
M  END
$$$$
scan_sander_basal/min_pdbs/min_pdb_C271_255.pdb
 OpenBabel09051719303D

 37 42  0  0  1  0  0  0  0  0999 V2000
    0.2720   -0.0820    0.5360 C   0  0  0  0  0  0  0  0  0  0  0  0
    1.0950    0.3840    1.5740 C   0  0  0  0  0  0  0  0  0  0  0  0
    0.0260    0.6360   -0.5750 N   0  0  0  0  0  0  0  0  0  0  0  0
    1.6860    1.6520    1.4540 C   0  0  0  0  0  0  0  0  0  0  0  0
    0.5930    1.8560   -0.6870 C   0  0  0  0  0  0  0  0  0  0  0  0
    1.4360    2.4300    0.2990 C   0  0  0  0  0  0  0  0  0  0  0  0
    2.0650    3.7770    0.1250 C   0  0  0  0  0  0  0  0  0  0  0  0
    3.4190    3.9930    0.4620 C   0  0  0  0  0  0  0  0  0  0  0  0
    1.3760    4.9070   -0.3710 C   0  0  0  0  0  0  0  0  0  0  0  0
    4.0450    5.1780    0.3270 N   0  0  0  0  0  0  0  0  0  0  0  0
    0.0750    4.8970   -0.7230 N   0  0  0  0  0  0  0  0  0  0  0  0
    2.0160    6.1330   -0.5090 C   0  0  0  0  0  0  0  0  0  0  0  0
    3.3850    6.2570   -0.1510 C   0  0  0  0  0  0  0  0  0  0  0  0
   -0.2480    6.4210   -1.2140 S   0  0  0  0  0  0  0  0  0  0  0  0
    1.2170    7.1150   -0.9890 N   0  0  0  0  0  0  0  0  0  0  0  0
    4.1420    7.5290   -0.2740 C   0  0  1  0  0  0  0  0  0  0  0  0
    3.5000    9.0930   -0.8520 B   0  0  0  0  0  0  0  0  0  0  0  0
    5.4820    7.6900    0.0500 C   0  0  0  0  0  0  0  0  0  0  0  0
    5.0590    9.8820   -0.6270 C   0  0  0  0  0  0  0  0  0  0  0  0
    6.6660    6.5620    0.6700 S   0  0  0  0  0  0  0  0  0  0  0  0
    5.9590    8.9790   -0.1490 C   0  0  0  0  0  0  0  0  0  0  0  0
    5.3860   11.2540   -0.8480 C   0  0  0  0  0  0  0  0  0  0  0  0
    7.8510    7.9030    0.6600 C   0  0  0  0  0  0  0  0  0  0  0  0
    7.3290    9.1060    0.2050 C   0  0  0  0  0  0  0  0  0  0  0  0
    6.0860   11.5330   -1.9300 C   0  0  0  0  0  0  0  0  0  0  0  0
    4.8870   12.5810    0.1690 S   0  0  0  0  0  0  0  0  0  0  0  0
    6.2910   12.8920   -2.0020 C   0  0  0  0  0  0  0  0  0  0  0  0
    5.7270   13.6100   -0.9700 C   0  0  0  0  0  0  0  0  0  0  0  0
   -0.2030   -1.0610    0.5950 H   0  0  0  0  0  0  0  0  0  0  0  0
    1.2680   -0.2280    2.4540 H   0  0  0  0  0  0  0  0  0  0  0  0
    2.3220    2.0330    2.2480 H   0  0  0  0  0  0  0  0  0  0  0  0
    0.3770    2.3940   -1.6080 H   0  0  0  0  0  0  0  0  0  0  0  0
    4.0290    3.1760    0.8470 H   0  0  0  0  0  0  0  0  0  0  0  0
    8.8610    7.7030    0.9910 H   0  0  0  0  0  0  0  0  0  0  0  0
    7.8900   10.0310    0.1190 H   0  0  0  0  0  0  0  0  0  0  0  0
    6.8580   13.2950   -2.8330 H   0  0  0  0  0  0  0  0  0  0  0  0
    5.7500   14.6780   -0.8070 H   0  0  0  0  0  0  0  0  0  0  0  0
  1 29  1  0  0  0  0
  1  2  2  0  0  0  0
  2 30  1  0  0  0  0
  3  1  1  0  0  0  0
  4  2  1  0  0  0  0
  4 31  1  0  0  0  0
  5  3  2  0  0  0  0
  5  6  1  0  0  0  0
  6  4  2  0  0  0  0
  7  6  1  0  0  0  0
  7  8  2  0  0  0  0
  8 33  1  0  0  0  0
  9  7  1  0  0  0  0
 10  8  1  0  0  0  0
 11  9  2  0  0  0  0
 12  9  1  0  0  0  0
 12 13  1  0  0  0  0
 13 10  2  0  0  0  0
 14 15  1  0  0  0  0
 14 11  1  0  0  0  0
 15 12  2  0  0  0  0
 16 13  1  1  0  0  0
 16 18  1  0  0  0  0
 17 19  2  0  0  0  0
 17 16  1  0  0  0  0
 18 20  1  0  0  0  0
 19 21  1  0  0  0  0
 21 18  2  0  0  0  0
 21 24  1  0  0  0  0
 22 19  1  0  0  0  0
 22 26  1  0  0  0  0
 23 20  1  0  0  0  0
 23 34  1  0  0  0  0
 24 23  2  0  0  0  0
 25 22  2  0  0  0  0
 27 25  1  0  0  0  0
 27 28  2  0  0  0  0
 28 37  1  0  0  0  0
 28 26  1  0  0  0  0
 32  5  1  0  0  0  0
 35 24  1  0  0  0  0
 36 27  1  0  0  0  0
M  END
$$$$
scan_sander_basal/min_pdbs/min_pdb_C271_270.pdb
 OpenBabel09051719303D

 37 42  0  0  1  0  0  0  0  0999 V2000
    0.2860   -0.0880    0.5350 C   0  0  0  0  0  0  0  0  0  0  0  0
    1.1030    0.3820    1.5760 C   0  0  0  0  0  0  0  0  0  0  0  0
    0.0440    0.6290   -0.5780 N   0  0  0  0  0  0  0  0  0  0  0  0
    1.6930    1.6510    1.4570 C   0  0  0  0  0  0  0  0  0  0  0  0
    0.6090    1.8490   -0.6890 C   0  0  0  0  0  0  0  0  0  0  0  0
    1.4460    2.4270    0.3000 C   0  0  0  0  0  0  0  0  0  0  0  0
    2.0730    3.7750    0.1270 C   0  0  0  0  0  0  0  0  0  0  0  0
    3.4250    3.9940    0.4700 C   0  0  0  0  0  0  0  0  0  0  0  0
    1.3830    4.9030   -0.3730 C   0  0  0  0  0  0  0  0  0  0  0  0
    4.0490    5.1800    0.3360 N   0  0  0  0  0  0  0  0  0  0  0  0
    0.0840    4.8900   -0.7310 N   0  0  0  0  0  0  0  0  0  0  0  0
    2.0220    6.1300   -0.5100 C   0  0  0  0  0  0  0  0  0  0  0  0
    3.3890    6.2580   -0.1460 C   0  0  0  0  0  0  0  0  0  0  0  0
   -0.2400    6.4130   -1.2260 S   0  0  0  0  0  0  0  0  0  0  0  0
    1.2220    7.1100   -0.9940 N   0  0  0  0  0  0  0  0  0  0  0  0
    4.1430    7.5310   -0.2670 C   0  0  1  0  0  0  0  0  0  0  0  0
    3.5000    9.0930   -0.8500 B   0  0  0  0  0  0  0  0  0  0  0  0
    5.4810    7.6950    0.0630 C   0  0  0  0  0  0  0  0  0  0  0  0
    5.0550    9.8860   -0.6120 C   0  0  0  0  0  0  0  0  0  0  0  0
    6.6680    6.5690    0.6810 S   0  0  0  0  0  0  0  0  0  0  0  0
    5.9560    8.9850   -0.1330 C   0  0  0  0  0  0  0  0  0  0  0  0
    5.3880   11.2550   -0.8430 C   0  0  0  0  0  0  0  0  0  0  0  0
    7.8500    7.9120    0.6720 C   0  0  0  0  0  0  0  0  0  0  0  0
    7.3260    9.1150    0.2190 C   0  0  0  0  0  0  0  0  0  0  0  0
    5.8290   11.5620   -2.0460 C   0  0  0  0  0  0  0  0  0  0  0  0
    5.2340   12.5380    0.3280 S   0  0  0  0  0  0  0  0  0  0  0  0
    6.0930   12.9120   -2.1010 C   0  0  0  0  0  0  0  0  0  0  0  0
    5.8380   13.5920   -0.9310 C   0  0  0  0  0  0  0  0  0  0  0  0
   -0.1870   -1.0670    0.5930 H   0  0  0  0  0  0  0  0  0  0  0  0
    1.2740   -0.2290    2.4570 H   0  0  0  0  0  0  0  0  0  0  0  0
    2.3250    2.0350    2.2530 H   0  0  0  0  0  0  0  0  0  0  0  0
    0.3950    2.3860   -1.6120 H   0  0  0  0  0  0  0  0  0  0  0  0
    4.0350    3.1790    0.8580 H   0  0  0  0  0  0  0  0  0  0  0  0
    8.8610    7.7130    1.0020 H   0  0  0  0  0  0  0  0  0  0  0  0
    7.8860   10.0400    0.1330 H   0  0  0  0  0  0  0  0  0  0  0  0
    6.4700   13.3360   -3.0250 H   0  0  0  0  0  0  0  0  0  0  0  0
    5.9650   14.6470   -0.7290 H   0  0  0  0  0  0  0  0  0  0  0  0
  1 29  1  0  0  0  0
  1  2  2  0  0  0  0
  2 30  1  0  0  0  0
  3  1  1  0  0  0  0
  4  2  1  0  0  0  0
  4 31  1  0  0  0  0
  5  3  2  0  0  0  0
  5  6  1  0  0  0  0
  6  4  2  0  0  0  0
  7  6  1  0  0  0  0
  7  8  2  0  0  0  0
  8 33  1  0  0  0  0
  9  7  1  0  0  0  0
 10  8  1  0  0  0  0
 11  9  2  0  0  0  0
 12  9  1  0  0  0  0
 12 13  1  0  0  0  0
 13 10  2  0  0  0  0
 14 15  1  0  0  0  0
 14 11  1  0  0  0  0
 15 12  2  0  0  0  0
 16 13  1  1  0  0  0
 16 18  1  0  0  0  0
 17 19  2  0  0  0  0
 17 16  1  0  0  0  0
 18 20  1  0  0  0  0
 19 21  1  0  0  0  0
 21 18  2  0  0  0  0
 21 24  1  0  0  0  0
 22 19  1  0  0  0  0
 22 26  1  0  0  0  0
 23 20  1  0  0  0  0
 23 34  1  0  0  0  0
 24 23  2  0  0  0  0
 25 22  2  0  0  0  0
 27 25  1  0  0  0  0
 27 28  2  0  0  0  0
 28 37  1  0  0  0  0
 28 26  1  0  0  0  0
 32  5  1  0  0  0  0
 35 24  1  0  0  0  0
 36 27  1  0  0  0  0
M  END
$$$$
scan_sander_basal/min_pdbs/min_pdb_C271_285.pdb
 OpenBabel09051719303D

 37 42  0  0  1  0  0  0  0  0999 V2000
    0.2960   -0.0900    0.5340 C   0  0  0  0  0  0  0  0  0  0  0  0
    1.1030    0.3850    1.5800 C   0  0  0  0  0  0  0  0  0  0  0  0
    0.0630    0.6220   -0.5850 N   0  0  0  0  0  0  0  0  0  0  0  0
    1.6930    1.6540    1.4610 C   0  0  0  0  0  0  0  0  0  0  0  0
    0.6280    1.8420   -0.6960 C   0  0  0  0  0  0  0  0  0  0  0  0
    1.4560    2.4250    0.2980 C   0  0  0  0  0  0  0  0  0  0  0  0
    2.0840    3.7720    0.1250 C   0  0  0  0  0  0  0  0  0  0  0  0
    3.4320    3.9940    0.4790 C   0  0  0  0  0  0  0  0  0  0  0  0
    1.3980    4.8970   -0.3870 C   0  0  0  0  0  0  0  0  0  0  0  0
    4.0570    5.1800    0.3460 N   0  0  0  0  0  0  0  0  0  0  0  0
    0.1020    4.8820   -0.7570 N   0  0  0  0  0  0  0  0  0  0  0  0
    2.0370    6.1250   -0.5230 C   0  0  0  0  0  0  0  0  0  0  0  0
    3.4000    6.2550   -0.1460 C   0  0  0  0  0  0  0  0  0  0  0  0
   -0.2180    6.4030   -1.2610 S   0  0  0  0  0  0  0  0  0  0  0  0
    1.2410    7.1020   -1.0180 N   0  0  0  0  0  0  0  0  0  0  0  0
    4.1550    7.5280   -0.2650 C   0  0  1  0  0  0  0  0  0  0  0  0
    3.5150    9.0880   -0.8600 B   0  0  0  0  0  0  0  0  0  0  0  0
    5.4890    7.6960    0.0770 C   0  0  0  0  0  0  0  0  0  0  0  0
    5.0670    9.8840   -0.6080 C   0  0  0  0  0  0  0  0  0  0  0  0
    6.6710    6.5710    0.7080 S   0  0  0  0  0  0  0  0  0  0  0  0
    5.9640    8.9850   -0.1190 C   0  0  0  0  0  0  0  0  0  0  0  0
    5.3990   11.2520   -0.8420 C   0  0  0  0  0  0  0  0  0  0  0  0
    7.8530    7.9150    0.7030 C   0  0  0  0  0  0  0  0  0  0  0  0
    7.3330    9.1160    0.2420 C   0  0  0  0  0  0  0  0  0  0  0  0
    5.5560   11.6150   -2.0990 C   0  0  0  0  0  0  0  0  0  0  0  0
    5.5920   12.4680    0.3940 S   0  0  0  0  0  0  0  0  0  0  0  0
    5.8660   12.9560   -2.1490 C   0  0  0  0  0  0  0  0  0  0  0  0
    5.9300   13.5730   -0.9190 C   0  0  0  0  0  0  0  0  0  0  0  0
   -0.1770   -1.0700    0.5920 H   0  0  0  0  0  0  0  0  0  0  0  0
    1.2660   -0.2220    2.4650 H   0  0  0  0  0  0  0  0  0  0  0  0
    2.3170    2.0410    2.2610 H   0  0  0  0  0  0  0  0  0  0  0  0
    0.4230    2.3750   -1.6230 H   0  0  0  0  0  0  0  0  0  0  0  0
    4.0400    3.1810    0.8760 H   0  0  0  0  0  0  0  0  0  0  0  0
    8.8620    7.7170    1.0410 H   0  0  0  0  0  0  0  0  0  0  0  0
    7.8940   10.0400    0.1570 H   0  0  0  0  0  0  0  0  0  0  0  0
    6.0330   13.4210   -3.1130 H   0  0  0  0  0  0  0  0  0  0  0  0
    6.1530   14.6090   -0.7010 H   0  0  0  0  0  0  0  0  0  0  0  0
  1 29  1  0  0  0  0
  1  2  2  0  0  0  0
  2 30  1  0  0  0  0
  3  1  1  0  0  0  0
  4  2  1  0  0  0  0
  4 31  1  0  0  0  0
  5  3  2  0  0  0  0
  5  6  1  0  0  0  0
  6  4  2  0  0  0  0
  7  6  1  0  0  0  0
  7  8  2  0  0  0  0
  8 33  1  0  0  0  0
  9  7  1  0  0  0  0
 10  8  1  0  0  0  0
 11  9  2  0  0  0  0
 12  9  1  0  0  0  0
 12 13  1  0  0  0  0
 13 10  2  0  0  0  0
 14 15  1  0  0  0  0
 14 11  1  0  0  0  0
 15 12  2  0  0  0  0
 16 13  1  1  0  0  0
 16 18  1  0  0  0  0
 17 19  2  0  0  0  0
 17 16  1  0  0  0  0
 18 20  1  0  0  0  0
 19 21  1  0  0  0  0
 21 18  2  0  0  0  0
 21 24  1  0  0  0  0
 22 19  1  0  0  0  0
 22 26  1  0  0  0  0
 23 20  1  0  0  0  0
 23 34  1  0  0  0  0
 24 23  2  0  0  0  0
 25 22  2  0  0  0  0
 27 25  1  0  0  0  0
 27 28  2  0  0  0  0
 28 37  1  0  0  0  0
 28 26  1  0  0  0  0
 32  5  1  0  0  0  0
 35 24  1  0  0  0  0
 36 27  1  0  0  0  0
M  END
$$$$
scan_sander_basal/min_pdbs/min_pdb_C271_300.pdb
 OpenBabel09051719303D

 37 42  0  0  1  0  0  0  0  0999 V2000
    0.3150   -0.0970    0.5140 C   0  0  0  0  0  0  0  0  0  0  0  0
    1.1030    0.3840    1.5720 C   0  0  0  0  0  0  0  0  0  0  0  0
    0.1000    0.6090   -0.6120 N   0  0  0  0  0  0  0  0  0  0  0  0
    1.6910    1.6540    1.4580 C   0  0  0  0  0  0  0  0  0  0  0  0
    0.6640    1.8300   -0.7180 C   0  0  0  0  0  0  0  0  0  0  0  0
    1.4730    2.4190    0.2870 C   0  0  0  0  0  0  0  0  0  0  0  0
    2.1010    3.7680    0.1190 C   0  0  0  0  0  0  0  0  0  0  0  0
    3.4420    3.9940    0.4950 C   0  0  0  0  0  0  0  0  0  0  0  0
    1.4210    4.8890   -0.4100 C   0  0  0  0  0  0  0  0  0  0  0  0
    4.0670    5.1800    0.3660 N   0  0  0  0  0  0  0  0  0  0  0  0
    0.1320    4.8680   -0.8020 N   0  0  0  0  0  0  0  0  0  0  0  0
    2.0600    6.1170   -0.5430 C   0  0  0  0  0  0  0  0  0  0  0  0
    3.4170    6.2510   -0.1440 C   0  0  0  0  0  0  0  0  0  0  0  0
   -0.1830    6.3860   -1.3200 S   0  0  0  0  0  0  0  0  0  0  0  0
    1.2710    7.0890   -1.0570 N   0  0  0  0  0  0  0  0  0  0  0  0
    4.1720    7.5250   -0.2590 C   0  0  1  0  0  0  0  0  0  0  0  0
    3.5400    9.0790   -0.8750 B   0  0  0  0  0  0  0  0  0  0  0  0
    5.5000    7.6980    0.1030 C   0  0  0  0  0  0  0  0  0  0  0  0
    5.0870    9.8800   -0.6100 C   0  0  0  0  0  0  0  0  0  0  0  0
    6.6720    6.5770    0.7590 S   0  0  0  0  0  0  0  0  0  0  0  0
    5.9780    8.9860   -0.0960 C   0  0  0  0  0  0  0  0  0  0  0  0
    5.4110   11.2500   -0.8450 C   0  0  0  0  0  0  0  0  0  0  0  0
    7.8560    7.9190    0.7570 C   0  0  0  0  0  0  0  0  0  0  0  0
    7.3430    9.1170    0.2790 C   0  0  0  0  0  0  0  0  0  0  0  0
    5.2770   11.6810   -2.0840 C   0  0  0  0  0  0  0  0  0  0  0  0
    5.9280   12.3950    0.3680 S   0  0  0  0  0  0  0  0  0  0  0  0
    5.6130   13.0160   -2.1410 C   0  0  0  0  0  0  0  0  0  0  0  0
    5.9860   13.5630   -0.9330 C   0  0  0  0  0  0  0  0  0  0  0  0
   -0.1570   -1.0780    0.5680 H   0  0  0  0  0  0  0  0  0  0  0  0
    1.2520   -0.2180    2.4630 H   0  0  0  0  0  0  0  0  0  0  0  0
    2.3010    2.0470    2.2670 H   0  0  0  0  0  0  0  0  0  0  0  0
    0.4740    2.3580   -1.6510 H   0  0  0  0  0  0  0  0  0  0  0  0
    4.0440    3.1840    0.9070 H   0  0  0  0  0  0  0  0  0  0  0  0
    8.8600    7.7220    1.1080 H   0  0  0  0  0  0  0  0  0  0  0  0
    7.9110   10.0360    0.1920 H   0  0  0  0  0  0  0  0  0  0  0  0
    5.5630   13.5290   -3.0930 H   0  0  0  0  0  0  0  0  0  0  0  0
    6.2900   14.5790   -0.7240 H   0  0  0  0  0  0  0  0  0  0  0  0
  1 29  1  0  0  0  0
  1  2  2  0  0  0  0
  2 30  1  0  0  0  0
  3  1  1  0  0  0  0
  4  2  1  0  0  0  0
  4 31  1  0  0  0  0
  5  3  2  0  0  0  0
  5  6  1  0  0  0  0
  6  4  2  0  0  0  0
  7  6  1  0  0  0  0
  7  8  2  0  0  0  0
  8 33  1  0  0  0  0
  9  7  1  0  0  0  0
 10  8  1  0  0  0  0
 11  9  2  0  0  0  0
 12  9  1  0  0  0  0
 12 13  1  0  0  0  0
 13 10  2  0  0  0  0
 14 15  1  0  0  0  0
 14 11  1  0  0  0  0
 15 12  2  0  0  0  0
 16 13  1  1  0  0  0
 16 18  1  0  0  0  0
 17 19  2  0  0  0  0
 17 16  1  0  0  0  0
 18 20  1  0  0  0  0
 19 21  1  0  0  0  0
 21 18  2  0  0  0  0
 21 24  1  0  0  0  0
 22 19  1  0  0  0  0
 22 26  1  0  0  0  0
 23 20  1  0  0  0  0
 23 34  1  0  0  0  0
 24 23  2  0  0  0  0
 25 22  2  0  0  0  0
 27 25  1  0  0  0  0
 27 28  2  0  0  0  0
 28 37  1  0  0  0  0
 28 26  1  0  0  0  0
 32  5  1  0  0  0  0
 35 24  1  0  0  0  0
 36 27  1  0  0  0  0
M  END
$$$$
scan_sander_basal/min_pdbs/min_pdb_C271_315.pdb
 OpenBabel09051719303D

 37 42  0  0  1  0  0  0  0  0999 V2000
    0.3110   -0.0880    0.5220 C   0  0  0  0  0  0  0  0  0  0  0  0
    1.0700    0.4110    1.5930 C   0  0  0  0  0  0  0  0  0  0  0  0
    0.1320    0.5970   -0.6230 N   0  0  0  0  0  0  0  0  0  0  0  0
    1.6650    1.6770    1.4720 C   0  0  0  0  0  0  0  0  0  0  0  0
    0.7010    1.8150   -0.7350 C   0  0  0  0  0  0  0  0  0  0  0  0
    1.4830    2.4200    0.2820 C   0  0  0  0  0  0  0  0  0  0  0  0
    2.1180    3.7640    0.1070 C   0  0  0  0  0  0  0  0  0  0  0  0
    3.4490    3.9950    0.5170 C   0  0  0  0  0  0  0  0  0  0  0  0
    1.4580    4.8760   -0.4630 C   0  0  0  0  0  0  0  0  0  0  0  0
    4.0800    5.1770    0.3860 N   0  0  0  0  0  0  0  0  0  0  0  0
    0.1800    4.8520   -0.8920 N   0  0  0  0  0  0  0  0  0  0  0  0
    2.1030    6.1010   -0.5980 C   0  0  0  0  0  0  0  0  0  0  0  0
    3.4480    6.2410   -0.1620 C   0  0  0  0  0  0  0  0  0  0  0  0
   -0.1150    6.3600   -1.4460 S   0  0  0  0  0  0  0  0  0  0  0  0
    1.3320    7.0650   -1.1530 N   0  0  0  0  0  0  0  0  0  0  0  0
    4.2080    7.5120   -0.2750 C   0  0  1  0  0  0  0  0  0  0  0  0
    3.5970    9.0540   -0.9360 B   0  0  0  0  0  0  0  0  0  0  0  0
    5.5250    7.6900    0.1230 C   0  0  0  0  0  0  0  0  0  0  0  0
    5.1360    9.8620   -0.6410 C   0  0  0  0  0  0  0  0  0  0  0  0
    6.6720    6.5760    0.8300 S   0  0  0  0  0  0  0  0  0  0  0  0
    6.0110    8.9760   -0.0830 C   0  0  0  0  0  0  0  0  0  0  0  0
    5.4410   11.2410   -0.8700 C   0  0  0  0  0  0  0  0  0  0  0  0
    7.8620    7.9100    0.8350 C   0  0  0  0  0  0  0  0  0  0  0  0
    7.3690    9.1020    0.3240 C   0  0  0  0  0  0  0  0  0  0  0  0
    5.0310   11.7440   -2.0180 C   0  0  0  0  0  0  0  0  0  0  0  0
    6.2230   12.3250    0.2560 S   0  0  0  0  0  0  0  0  0  0  0  0
    5.3610   13.0800   -2.0800 C   0  0  0  0  0  0  0  0  0  0  0  0
    6.0030   13.5610   -0.9610 C   0  0  0  0  0  0  0  0  0  0  0  0
   -0.1650   -1.0670    0.5810 H   0  0  0  0  0  0  0  0  0  0  0  0
    1.1910   -0.1750    2.5000 H   0  0  0  0  0  0  0  0  0  0  0  0
    2.2510    2.0840    2.2910 H   0  0  0  0  0  0  0  0  0  0  0  0
    0.5400    2.3250   -1.6840 H   0  0  0  0  0  0  0  0  0  0  0  0
    4.0370    3.1910    0.9610 H   0  0  0  0  0  0  0  0  0  0  0  0
    8.8570    7.7130    1.2120 H   0  0  0  0  0  0  0  0  0  0  0  0
    7.9500   10.0120    0.2320 H   0  0  0  0  0  0  0  0  0  0  0  0
    5.1020   13.6440   -2.9680 H   0  0  0  0  0  0  0  0  0  0  0  0
    6.3580   14.5650   -0.7730 H   0  0  0  0  0  0  0  0  0  0  0  0
  1 29  1  0  0  0  0
  1  2  2  0  0  0  0
  2 30  1  0  0  0  0
  3  1  1  0  0  0  0
  4  2  1  0  0  0  0
  4 31  1  0  0  0  0
  5  3  2  0  0  0  0
  5  6  1  0  0  0  0
  6  4  2  0  0  0  0
  7  6  1  0  0  0  0
  7  8  2  0  0  0  0
  8 33  1  0  0  0  0
  9  7  1  0  0  0  0
 10  8  1  0  0  0  0
 11  9  2  0  0  0  0
 12  9  1  0  0  0  0
 12 13  1  0  0  0  0
 13 10  2  0  0  0  0
 14 15  1  0  0  0  0
 14 11  1  0  0  0  0
 15 12  2  0  0  0  0
 16 13  1  1  0  0  0
 16 18  1  0  0  0  0
 17 19  2  0  0  0  0
 17 16  1  0  0  0  0
 18 20  1  0  0  0  0
 19 21  1  0  0  0  0
 20 23  1  0  0  0  0
 21 18  2  0  0  0  0
 21 24  1  0  0  0  0
 22 19  1  0  0  0  0
 22 26  1  0  0  0  0
 23 34  1  0  0  0  0
 24 23  2  0  0  0  0
 25 22  2  0  0  0  0
 27 25  1  0  0  0  0
 27 28  2  0  0  0  0
 28 37  1  0  0  0  0
 28 26  1  0  0  0  0
 32  5  1  0  0  0  0
 35 24  1  0  0  0  0
 36 27  1  0  0  0  0
M  END
$$$$
scan_sander_basal/min_pdbs/min_pdb_C271_330.pdb
 OpenBabel09051719303D

 37 42  0  0  1  0  0  0  0  0999 V2000
    0.3150   -0.0850    0.5080 C   0  0  0  0  0  0  0  0  0  0  0  0
    1.0440    0.4270    1.5940 C   0  0  0  0  0  0  0  0  0  0  0  0
    0.1670    0.5870   -0.6490 N   0  0  0  0  0  0  0  0  0  0  0  0
    1.6430    1.6910    1.4740 C   0  0  0  0  0  0  0  0  0  0  0  0
    0.7410    1.8030   -0.7610 C   0  0  0  0  0  0  0  0  0  0  0  0
    1.4940    2.4200    0.2700 C   0  0  0  0  0  0  0  0  0  0  0  0
    2.1350    3.7620    0.0970 C   0  0  0  0  0  0  0  0  0  0  0  0
    3.4540    3.9970    0.5410 C   0  0  0  0  0  0  0  0  0  0  0  0
    1.4910    4.8670   -0.5040 C   0  0  0  0  0  0  0  0  0  0  0  0
    4.0900    5.1770    0.4120 N   0  0  0  0  0  0  0  0  0  0  0  0
    0.2260    4.8380   -0.9670 N   0  0  0  0  0  0  0  0  0  0  0  0
    2.1420    6.0890   -0.6370 C   0  0  0  0  0  0  0  0  0  0  0  0
    3.4750    6.2340   -0.1660 C   0  0  0  0  0  0  0  0  0  0  0  0
   -0.0530    6.3390   -1.5470 S   0  0  0  0  0  0  0  0  0  0  0  0
    1.3860    7.0460   -1.2250 N   0  0  0  0  0  0  0  0  0  0  0  0
    4.2390    7.5030   -0.2760 C   0  0  1  0  0  0  0  0  0  0  0  0
    3.6460    9.0340   -0.9730 B   0  0  0  0  0  0  0  0  0  0  0  0
    5.5440    7.6890    0.1540 C   0  0  0  0  0  0  0  0  0  0  0  0
    5.1780    9.8530   -0.6540 C   0  0  0  0  0  0  0  0  0  0  0  0
    6.6680    6.5770    0.9020 S   0  0  0  0  0  0  0  0  0  0  0  0
    6.0380    8.9730   -0.0570 C   0  0  0  0  0  0  0  0  0  0  0  0
    5.4610   11.2390   -0.8930 C   0  0  0  0  0  0  0  0  0  0  0  0
    7.8650    7.9020    0.9120 C   0  0  0  0  0  0  0  0  0  0  0  0
    7.3910    9.0900    0.3750 C   0  0  0  0  0  0  0  0  0  0  0  0
    4.8020   11.7920   -1.8940 C   0  0  0  0  0  0  0  0  0  0  0  0
    6.4930   12.2840    0.0570 S   0  0  0  0  0  0  0  0  0  0  0  0
    5.1260   13.1270   -1.9870 C   0  0  0  0  0  0  0  0  0  0  0  0
    6.0180   13.5640   -1.0330 C   0  0  0  0  0  0  0  0  0  0  0  0
   -0.1630   -1.0630    0.5650 H   0  0  0  0  0  0  0  0  0  0  0  0
    1.1400   -0.1480    2.5100 H   0  0  0  0  0  0  0  0  0  0  0  0
    2.2070    2.1070    2.3040 H   0  0  0  0  0  0  0  0  0  0  0  0
    0.6050    2.3020   -1.7190 H   0  0  0  0  0  0  0  0  0  0  0  0
    4.0290    3.1990    1.0110 H   0  0  0  0  0  0  0  0  0  0  0  0
    8.8520    7.7020    1.3100 H   0  0  0  0  0  0  0  0  0  0  0  0
    7.9910    9.9860    0.2810 H   0  0  0  0  0  0  0  0  0  0  0  0
    4.6750   13.7240   -2.7700 H   0  0  0  0  0  0  0  0  0  0  0  0
    6.4200   14.5590   -0.8990 H   0  0  0  0  0  0  0  0  0  0  0  0
  1 29  1  0  0  0  0
  1  2  2  0  0  0  0
  2 30  1  0  0  0  0
  3  1  1  0  0  0  0
  4  2  1  0  0  0  0
  4 31  1  0  0  0  0
  5  3  2  0  0  0  0
  5  6  1  0  0  0  0
  6  4  2  0  0  0  0
  7  6  1  0  0  0  0
  7  8  2  0  0  0  0
  8 33  1  0  0  0  0
  9  7  1  0  0  0  0
 10  8  1  0  0  0  0
 11  9  2  0  0  0  0
 12  9  1  0  0  0  0
 12 13  1  0  0  0  0
 13 10  2  0  0  0  0
 14 15  1  0  0  0  0
 14 11  1  0  0  0  0
 15 12  2  0  0  0  0
 16 13  1  1  0  0  0
 16 18  1  0  0  0  0
 17 19  2  0  0  0  0
 17 16  1  0  0  0  0
 18 20  1  0  0  0  0
 19 21  1  0  0  0  0
 20 23  1  0  0  0  0
 21 18  2  0  0  0  0
 21 24  1  0  0  0  0
 22 19  1  0  0  0  0
 22 26  1  0  0  0  0
 23 34  1  0  0  0  0
 24 23  2  0  0  0  0
 25 22  2  0  0  0  0
 27 25  1  0  0  0  0
 27 28  2  0  0  0  0
 28 37  1  0  0  0  0
 28 26  1  0  0  0  0
 32  5  1  0  0  0  0
 35 24  1  0  0  0  0
 36 27  1  0  0  0  0
M  END
$$$$
scan_sander_basal/min_pdbs/min_pdb_C271_345.pdb
 OpenBabel09051719303D

 37 42  0  0  1  0  0  0  0  0999 V2000
    0.0260    0.0850    0.5990 C   0  0  0  0  0  0  0  0  0  0  0  0
    1.0620    0.3940    1.4950 C   0  0  0  0  0  0  0  0  0  0  0  0
   -0.3600    0.9220   -0.3820 N   0  0  0  0  0  0  0  0  0  0  0  0
    1.7230    1.6260    1.3700 C   0  0  0  0  0  0  0  0  0  0  0  0
    0.2740    2.1070   -0.4980 C   0  0  0  0  0  0  0  0  0  0  0  0
    1.3290    2.5270    0.3520 C   0  0  0  0  0  0  0  0  0  0  0  0
    2.0230    3.8410    0.1740 C   0  0  0  0  0  0  0  0  0  0  0  0
    3.4290    3.9350    0.2620 C   0  0  0  0  0  0  0  0  0  0  0  0
    1.3500    5.0560   -0.0860 C   0  0  0  0  0  0  0  0  0  0  0  0
    4.1150    5.0840    0.1070 N   0  0  0  0  0  0  0  0  0  0  0  0
    0.0100    5.1650   -0.1820 N   0  0  0  0  0  0  0  0  0  0  0  0
    2.0530    6.2460   -0.2430 C   0  0  0  0  0  0  0  0  0  0  0  0
    3.4700    6.2460   -0.1440 C   0  0  0  0  0  0  0  0  0  0  0  0
   -0.2720    6.7470   -0.4740 S   0  0  0  0  0  0  0  0  0  0  0  0
    1.2610    7.3180   -0.4790 N   0  0  0  0  0  0  0  0  0  0  0  0
    4.2930    7.4730   -0.3050 C   0  0  1  0  0  0  0  0  0  0  0  0
    3.6810    9.1160   -0.6170 B   0  0  0  0  0  0  0  0  0  0  0  0
    5.6760    7.5250   -0.2320 C   0  0  0  0  0  0  0  0  0  0  0  0
    5.3100    9.8030   -0.6350 C   0  0  0  0  0  0  0  0  0  0  0  0
    6.8440    6.2510    0.0360 S   0  0  0  0  0  0  0  0  0  0  0  0
    6.2150    8.7980   -0.4130 C   0  0  0  0  0  0  0  0  0  0  0  0
    5.6230   11.1980   -0.7910 C   0  0  0  0  0  0  0  0  0  0  0  0
    8.1230    7.4860   -0.1190 C   0  0  0  0  0  0  0  0  0  0  0  0
    7.6410    8.7650   -0.3550 C   0  0  0  0  0  0  0  0  0  0  0  0
    4.6320   11.9520   -1.2330 C   0  0  0  0  0  0  0  0  0  0  0  0
    7.1160   12.0190   -0.3930 S   0  0  0  0  0  0  0  0  0  0  0  0
    5.0320   13.2670   -1.3090 C   0  0  0  0  0  0  0  0  0  0  0  0
    6.3280   13.4920   -0.9060 C   0  0  0  0  0  0  0  0  0  0  0  0
   -0.5080   -0.8620    0.6660 H   0  0  0  0  0  0  0  0  0  0  0  0
    1.3440   -0.3100    2.2720 H   0  0  0  0  0  0  0  0  0  0  0  0
    2.5240    1.8870    2.0560 H   0  0  0  0  0  0  0  0  0  0  0  0
   -0.0640    2.7450   -1.3130 H   0  0  0  0  0  0  0  0  0  0  0  0
    4.0310    3.0470    0.4540 H   0  0  0  0  0  0  0  0  0  0  0  0
    9.1550    7.1730   -0.0340 H   0  0  0  0  0  0  0  0  0  0  0  0
    8.2870    9.6210   -0.4940 H   0  0  0  0  0  0  0  0  0  0  0  0
    4.3290   14.0110   -1.6650 H   0  0  0  0  0  0  0  0  0  0  0  0
    6.8680   14.4290   -0.8730 H   0  0  0  0  0  0  0  0  0  0  0  0
  1 29  1  0  0  0  0
  1  2  2  0  0  0  0
  2 30  1  0  0  0  0
  3  1  1  0  0  0  0
  4  2  1  0  0  0  0
  4 31  1  0  0  0  0
  5  3  2  0  0  0  0
  5  6  1  0  0  0  0
  6  4  2  0  0  0  0
  7  8  2  0  0  0  0
  7  6  1  0  0  0  0
  8 33  1  0  0  0  0
  9  7  1  0  0  0  0
 10  8  1  0  0  0  0
 11  9  2  0  0  0  0
 12 13  1  0  0  0  0
 12  9  1  0  0  0  0
 13 10  2  0  0  0  0
 14 11  1  0  0  0  0
 15 14  1  0  0  0  0
 15 12  2  0  0  0  0
 16 18  1  0  0  0  0
 16 13  1  1  0  0  0
 17 16  1  0  0  0  0
 18 20  1  0  0  0  0
 19 17  2  0  0  0  0
 19 21  1  0  0  0  0
 21 24  1  0  0  0  0
 21 18  2  0  0  0  0
 22 19  1  0  0  0  0
 22 26  1  0  0  0  0
 23 34  1  0  0  0  0
 23 20  1  0  0  0  0
 24 23  2  0  0  0  0
 25 22  2  0  0  0  0
 27 25  1  0  0  0  0
 27 28  2  0  0  0  0
 28 37  1  0  0  0  0
 28 26  1  0  0  0  0
 32  5  1  0  0  0  0
 35 24  1  0  0  0  0
 36 27  1  0  0  0  0
M  END
$$$$
scan_sander_basal/min_pdbs/min_pdb_C271_360.pdb
 OpenBabel09051719303D

 37 42  0  0  1  0  0  0  0  0999 V2000
    0.0270    0.0830    0.5680 C   0  0  0  0  0  0  0  0  0  0  0  0
    1.0600    0.3870    1.4690 C   0  0  0  0  0  0  0  0  0  0  0  0
   -0.3560    0.9250   -0.4100 N   0  0  0  0  0  0  0  0  0  0  0  0
    1.7210    1.6200    1.3530 C   0  0  0  0  0  0  0  0  0  0  0  0
    0.2790    2.1110   -0.5170 C   0  0  0  0  0  0  0  0  0  0  0  0
    1.3310    2.5260    0.3390 C   0  0  0  0  0  0  0  0  0  0  0  0
    2.0270    3.8410    0.1690 C   0  0  0  0  0  0  0  0  0  0  0  0
    3.4320    3.9330    0.2630 C   0  0  0  0  0  0  0  0  0  0  0  0
    1.3540    5.0570   -0.0860 C   0  0  0  0  0  0  0  0  0  0  0  0
    4.1190    5.0830    0.1180 N   0  0  0  0  0  0  0  0  0  0  0  0
    0.0150    5.1670   -0.1870 N   0  0  0  0  0  0  0  0  0  0  0  0
    2.0580    6.2470   -0.2340 C   0  0  0  0  0  0  0  0  0  0  0  0
    3.4760    6.2470   -0.1290 C   0  0  0  0  0  0  0  0  0  0  0  0
   -0.2660    6.7510   -0.4710 S   0  0  0  0  0  0  0  0  0  0  0  0
    1.2680    7.3210   -0.4670 N   0  0  0  0  0  0  0  0  0  0  0  0
    4.2990    7.4750   -0.2780 C   0  0  1  0  0  0  0  0  0  0  0  0
    3.6890    9.1190   -0.5820 B   0  0  0  0  0  0  0  0  0  0  0  0
    5.6820    7.5280   -0.2000 C   0  0  0  0  0  0  0  0  0  0  0  0
    5.3170    9.8090   -0.5930 C   0  0  0  0  0  0  0  0  0  0  0  0
    6.8460    6.2520    0.0760 S   0  0  0  0  0  0  0  0  0  0  0  0
    6.2230    8.8020   -0.3740 C   0  0  0  0  0  0  0  0  0  0  0  0
    5.6230   11.2000   -0.8020 C   0  0  0  0  0  0  0  0  0  0  0  0
    8.1250    7.4870   -0.0450 C   0  0  0  0  0  0  0  0  0  0  0  0
    7.6470    8.7680   -0.2810 C   0  0  0  0  0  0  0  0  0  0  0  0
    4.5750   11.9820   -0.9960 C   0  0  0  0  0  0  0  0  0  0  0  0
    7.1910   11.9790   -0.8340 S   0  0  0  0  0  0  0  0  0  0  0  0
    4.9770   13.2850   -1.1860 C   0  0  0  0  0  0  0  0  0  0  0  0
    6.3380   13.4740   -1.1330 C   0  0  0  0  0  0  0  0  0  0  0  0
   -0.5090   -0.8640    0.6290 H   0  0  0  0  0  0  0  0  0  0  0  0
    1.3380   -0.3220    2.2430 H   0  0  0  0  0  0  0  0  0  0  0  0
    2.5200    1.8770    2.0430 H   0  0  0  0  0  0  0  0  0  0  0  0
   -0.0560    2.7530   -1.3300 H   0  0  0  0  0  0  0  0  0  0  0  0
    4.0330    3.0440    0.4520 H   0  0  0  0  0  0  0  0  0  0  0  0
    9.1550    7.1760    0.0690 H   0  0  0  0  0  0  0  0  0  0  0  0
    8.2980    9.6240   -0.3800 H   0  0  0  0  0  0  0  0  0  0  0  0
    4.2260   14.0470   -1.3580 H   0  0  0  0  0  0  0  0  0  0  0  0
    6.8930   14.3940   -1.2510 H   0  0  0  0  0  0  0  0  0  0  0  0
  1 29  1  0  0  0  0
  1  2  2  0  0  0  0
  2 30  1  0  0  0  0
  3  1  1  0  0  0  0
  4  2  1  0  0  0  0
  4 31  1  0  0  0  0
  5  3  2  0  0  0  0
  5  6  1  0  0  0  0
  6  4  2  0  0  0  0
  7  8  2  0  0  0  0
  7  6  1  0  0  0  0
  8 33  1  0  0  0  0
  9  7  1  0  0  0  0
 10  8  1  0  0  0  0
 11  9  2  0  0  0  0
 12 13  1  0  0  0  0
 12  9  1  0  0  0  0
 13 10  2  0  0  0  0
 14 15  1  0  0  0  0
 14 11  1  0  0  0  0
 15 12  2  0  0  0  0
 16 18  1  0  0  0  0
 16 13  1  1  0  0  0
 17 16  1  0  0  0  0
 18 20  1  0  0  0  0
 19 17  2  0  0  0  0
 19 21  1  0  0  0  0
 21 24  1  0  0  0  0
 21 18  2  0  0  0  0
 22 19  1  0  0  0  0
 23 34  1  0  0  0  0
 23 20  1  0  0  0  0
 24 23  2  0  0  0  0
 25 22  2  0  0  0  0
 26 22  1  0  0  0  0
 27 28  2  0  0  0  0
 27 25  1  0  0  0  0
 28 26  1  0  0  0  0
 32  5  1  0  0  0  0
 35 24  1  0  0  0  0
 36 27  1  0  0  0  0
 37 28  1  0  0  0  0
M  END
$$$$
