scan_sander_basal/min_pdbs/min_pdb_C306_000.pdb
 OpenBabel09051719333D

 38 43  0  0  0  0  0  0  0  0999 V2000
   -0.2540   -0.0440    0.3800 C   0  0  0  0  0  0  0  0  0  0  0  0
   -0.1100    0.5850   -0.8600 C   0  0  0  0  0  0  0  0  0  0  0  0
    0.3030    0.5500    1.5160 C   0  0  0  0  0  0  0  0  0  0  0  0
    0.5880    1.8000   -0.9590 C   0  0  0  0  0  0  0  0  0  0  0  0
    1.0000    1.7650    1.4120 C   0  0  0  0  0  0  0  0  0  0  0  0
    1.1740    2.4460    0.1700 C   0  0  0  0  0  0  0  0  0  0  0  0
    1.9240    3.7680    0.0130 C   0  0  0  0  0  0  0  0  0  0  0  0
    2.0470    4.3770   -1.2680 C   0  0  0  0  0  0  0  0  0  0  0  0
    2.5530    4.5160    1.0580 C   0  0  0  0  0  0  0  0  0  0  0  0
    2.6830    5.5350   -1.5240 N   0  0  0  0  0  0  0  0  0  0  0  0
    2.5800    4.1720    2.3620 N   0  0  0  0  0  0  0  0  0  0  0  0
    3.2160    5.7170    0.7970 C   0  0  0  0  0  0  0  0  0  0  0  0
    3.2770    6.2180   -0.5230 C   0  0  0  0  0  0  0  0  0  0  0  0
    3.4070    5.3440    3.1410 S   0  0  0  0  0  0  0  0  0  0  0  0
    3.7540    6.3170    1.8820 N   0  0  0  0  0  0  0  0  0  0  0  0
    3.9430    7.4790   -0.9120 C   0  0  0  0  0  0  0  0  0  0  0  0
    4.6900    8.2310   -0.1100 N   0  0  0  0  0  0  0  0  0  0  0  0
    3.7740    8.0910   -2.5530 B   0  0  0  0  0  0  0  0  0  0  0  0
    5.1780    9.3440   -0.7560 C   0  0  0  0  0  0  0  0  0  0  0  0
    4.7790    9.4240   -2.0670 C   0  0  0  0  0  0  0  0  0  0  0  0
    5.2010   10.4890   -2.9350 C   0  0  0  0  0  0  0  0  0  0  0  0
    4.2140   11.2490   -4.2020 C   0  0  0  0  0  0  0  0  0  0  0  0
    6.4360   11.0870   -2.9000 C   0  0  0  0  0  0  0  0  0  0  0  0
    5.5230   12.3640   -4.6510 C   0  0  0  0  0  0  0  0  0  0  0  0
    7.8410   10.7130   -1.9420 S   0  0  0  0  0  0  0  0  0  0  0  0
    6.5880   12.0870   -3.8440 C   0  0  0  0  0  0  0  0  0  0  0  0
    8.6780   12.0240   -2.8330 C   0  0  0  0  0  0  0  0  0  0  0  0
    7.8930   12.6420   -3.8000 C   0  0  0  0  0  0  0  0  0  0  0  0
   -0.7930   -0.9840    0.4600 H   0  0  0  0  0  0  0  0  0  0  0  0
   -0.5390    0.1320   -1.7490 H   0  0  0  0  0  0  0  0  0  0  0  0
    0.1970    0.0690    2.4840 H   0  0  0  0  0  0  0  0  0  0  0  0
    0.6570    2.2240   -1.9510 H   0  0  0  0  0  0  0  0  0  0  0  0
    1.3980    2.1530    2.3340 H   0  0  0  0  0  0  0  0  0  0  0  0
    1.6180    3.9300   -2.1590 H   0  0  0  0  0  0  0  0  0  0  0  0
    5.7900   10.0470   -0.2070 H   0  0  0  0  0  0  0  0  0  0  0  0
    5.4160   13.0860   -5.4490 H   0  0  0  0  0  0  0  0  0  0  0  0
    9.7090   12.2390   -2.5830 H   0  0  0  0  0  0  0  0  0  0  0  0
    8.2280   13.4410   -4.4510 H   0  0  0  0  0  0  0  0  0  0  0  0
  1 29  1  0  0  0  0
  1  3  2  0  0  0  0
  2  1  1  0  0  0  0
  3 31  1  0  0  0  0
  4  2  2  0  0  0  0
  4  6  1  0  0  0  0
  5  3  1  0  0  0  0
  5 33  1  0  0  0  0
  6  5  2  0  0  0  0
  7  6  1  0  0  0  0
  7  9  1  0  0  0  0
  8  7  2  0  0  0  0
  9 11  2  0  0  0  0
 10  8  1  0  0  0  0
 10 13  2  0  0  0  0
 11 14  1  0  0  0  0
 12  9  1  0  0  0  0
 12 15  2  0  0  0  0
 13 12  1  0  0  0  0
 15 14  1  0  0  0  0
 16 13  1  0  0  0  0
 16 17  2  0  0  0  0
 18 20  2  0  0  0  0
 18 16  1  0  0  0  0
 19 35  1  0  0  0  0
 19 17  1  0  0  0  0
 20 19  1  0  0  0  0
 21 23  2  0  0  0  0
 21 20  1  0  0  0  0
 22 21  1  0  0  0  0
 23 25  1  0  0  0  0
 24 22  2  0  0  0  0
 24 26  1  0  0  0  0
 26 28  2  0  0  0  0
 26 23  1  0  0  0  0
 27 37  1  0  0  0  0
 27 25  2  0  0  0  0
 28 27  1  0  0  0  0
 30  2  1  0  0  0  0
 32  4  1  0  0  0  0
 34  8  1  0  0  0  0
 36 24  1  0  0  0  0
 38 28  1  0  0  0  0
M  END
$$$$
scan_sander_basal/min_pdbs/min_pdb_C306_015.pdb
 OpenBabel09051719333D

 38 43  0  0  0  0  0  0  0  0999 V2000
   -0.2910   -0.0010    0.3890 C   0  0  0  0  0  0  0  0  0  0  0  0
    0.0760    0.4890   -0.8690 C   0  0  0  0  0  0  0  0  0  0  0  0
    0.0570    0.7210    1.5360 C   0  0  0  0  0  0  0  0  0  0  0  0
    0.7900    1.6930   -0.9760 C   0  0  0  0  0  0  0  0  0  0  0  0
    0.7720    1.9250    1.4240 C   0  0  0  0  0  0  0  0  0  0  0  0
    1.1710    2.4560    0.1650 C   0  0  0  0  0  0  0  0  0  0  0  0
    1.9420    3.7560    0.0020 C   0  0  0  0  0  0  0  0  0  0  0  0
    2.0160    4.3880   -1.2690 C   0  0  0  0  0  0  0  0  0  0  0  0
    2.6280    4.4580    1.0380 C   0  0  0  0  0  0  0  0  0  0  0  0
    2.6530    5.5480   -1.5200 N   0  0  0  0  0  0  0  0  0  0  0  0
    2.7450    4.0410    2.3160 N   0  0  0  0  0  0  0  0  0  0  0  0
    3.2970    5.6550    0.7810 C   0  0  0  0  0  0  0  0  0  0  0  0
    3.3020    6.1930   -0.5270 C   0  0  0  0  0  0  0  0  0  0  0  0
    3.6310    5.1730    3.0900 S   0  0  0  0  0  0  0  0  0  0  0  0
    3.9100    6.2010    1.8550 N   0  0  0  0  0  0  0  0  0  0  0  0
    3.9650    7.4580   -0.9070 C   0  0  0  0  0  0  0  0  0  0  0  0
    4.7580    8.1760   -0.1190 N   0  0  0  0  0  0  0  0  0  0  0  0
    3.7280    8.1220   -2.5200 B   0  0  0  0  0  0  0  0  0  0  0  0
    5.2300    9.3030   -0.7530 C   0  0  0  0  0  0  0  0  0  0  0  0
    4.7730    9.4270   -2.0420 C   0  0  0  0  0  0  0  0  0  0  0  0
    5.1700   10.5130   -2.8960 C   0  0  0  0  0  0  0  0  0  0  0  0
    4.1360   11.3230   -4.0920 C   0  0  0  0  0  0  0  0  0  0  0  0
    6.4130   11.0950   -2.9000 C   0  0  0  0  0  0  0  0  0  0  0  0
    5.4370   12.4360   -4.5680 C   0  0  0  0  0  0  0  0  0  0  0  0
    7.8550   10.6750   -2.0200 S   0  0  0  0  0  0  0  0  0  0  0  0
    6.5350   12.1210   -3.8190 C   0  0  0  0  0  0  0  0  0  0  0  0
    8.6680   12.0010   -2.9090 C   0  0  0  0  0  0  0  0  0  0  0  0
    7.8480   12.6580   -3.8200 C   0  0  0  0  0  0  0  0  0  0  0  0
   -0.8440   -0.9320    0.4750 H   0  0  0  0  0  0  0  0  0  0  0  0
   -0.1860   -0.0690   -1.7640 H   0  0  0  0  0  0  0  0  0  0  0  0
   -0.2340    0.3540    2.5160 H   0  0  0  0  0  0  0  0  0  0  0  0
    1.0730    2.0060   -1.9730 H   0  0  0  0  0  0  0  0  0  0  0  0
    0.9730    2.4530    2.3450 H   0  0  0  0  0  0  0  0  0  0  0  0
    1.5060    3.9780   -2.1350 H   0  0  0  0  0  0  0  0  0  0  0  0
    5.8770    9.9810   -0.2120 H   0  0  0  0  0  0  0  0  0  0  0  0
    5.3040   13.1830   -5.3380 H   0  0  0  0  0  0  0  0  0  0  0  0
    9.7120   12.1950   -2.7010 H   0  0  0  0  0  0  0  0  0  0  0  0
    8.1640   13.4720   -4.4620 H   0  0  0  0  0  0  0  0  0  0  0  0
  1 29  1  0  0  0  0
  1  3  2  0  0  0  0
  2  1  1  0  0  0  0
  3 31  1  0  0  0  0
  4  2  2  0  0  0  0
  4  6  1  0  0  0  0
  5  3  1  0  0  0  0
  5 33  1  0  0  0  0
  6  5  2  0  0  0  0
  7  6  1  0  0  0  0
  7  9  1  0  0  0  0
  8  7  2  0  0  0  0
  9 11  2  0  0  0  0
 10  8  1  0  0  0  0
 10 13  2  0  0  0  0
 11 14  1  0  0  0  0
 12  9  1  0  0  0  0
 12 15  2  0  0  0  0
 13 12  1  0  0  0  0
 15 14  1  0  0  0  0
 16 13  1  0  0  0  0
 16 17  2  0  0  0  0
 18 20  2  0  0  0  0
 18 16  1  0  0  0  0
 19 35  1  0  0  0  0
 19 17  1  0  0  0  0
 20 19  1  0  0  0  0
 21 20  1  0  0  0  0
 22 21  1  0  0  0  0
 23 21  2  0  0  0  0
 23 25  1  0  0  0  0
 24 22  2  0  0  0  0
 24 26  1  0  0  0  0
 26 23  1  0  0  0  0
 27 37  1  0  0  0  0
 27 25  2  0  0  0  0
 28 26  2  0  0  0  0
 28 27  1  0  0  0  0
 30  2  1  0  0  0  0
 32  4  1  0  0  0  0
 34  8  1  0  0  0  0
 36 24  1  0  0  0  0
 38 28  1  0  0  0  0
M  END
$$$$
scan_sander_basal/min_pdbs/min_pdb_C306_030.pdb
 OpenBabel09051719333D

 38 43  0  0  0  0  0  0  0  0999 V2000
   -0.3000    0.0430    0.4090 C   0  0  0  0  0  0  0  0  0  0  0  0
    0.2710    0.3900   -0.8220 C   0  0  0  0  0  0  0  0  0  0  0  0
   -0.1520    0.8970    1.5100 C   0  0  0  0  0  0  0  0  0  0  0  0
    0.9920    1.5890   -0.9490 C   0  0  0  0  0  0  0  0  0  0  0  0
    0.5710    2.0940    1.3800 C   0  0  0  0  0  0  0  0  0  0  0  0
    1.1680    2.4720    0.1480 C   0  0  0  0  0  0  0  0  0  0  0  0
    1.9430    3.7520   -0.0240 C   0  0  0  0  0  0  0  0  0  0  0  0
    1.9580    4.4100   -1.2790 C   0  0  0  0  0  0  0  0  0  0  0  0
    2.6820    4.4000    1.0010 C   0  0  0  0  0  0  0  0  0  0  0  0
    2.6040    5.5670   -1.5240 N   0  0  0  0  0  0  0  0  0  0  0  0
    2.8360    3.9260    2.2550 N   0  0  0  0  0  0  0  0  0  0  0  0
    3.3590    5.5910    0.7520 C   0  0  0  0  0  0  0  0  0  0  0  0
    3.3100    6.1700   -0.5400 C   0  0  0  0  0  0  0  0  0  0  0  0
    3.7780    5.0160    3.0260 S   0  0  0  0  0  0  0  0  0  0  0  0
    4.0270    6.0850    1.8180 N   0  0  0  0  0  0  0  0  0  0  0  0
    3.9760    7.4350   -0.9100 C   0  0  0  0  0  0  0  0  0  0  0  0
    4.8170    8.1130   -0.1350 N   0  0  0  0  0  0  0  0  0  0  0  0
    3.6780    8.1580   -2.4870 B   0  0  0  0  0  0  0  0  0  0  0  0
    5.2800    9.2530   -0.7540 C   0  0  0  0  0  0  0  0  0  0  0  0
    4.7660    9.4280   -2.0140 C   0  0  0  0  0  0  0  0  0  0  0  0
    5.1420   10.5360   -2.8490 C   0  0  0  0  0  0  0  0  0  0  0  0
    4.0700   11.4030   -3.9690 C   0  0  0  0  0  0  0  0  0  0  0  0
    6.3940   11.0970   -2.8920 C   0  0  0  0  0  0  0  0  0  0  0  0
    5.3680   12.5100   -4.4680 C   0  0  0  0  0  0  0  0  0  0  0  0
    7.8680   10.6240   -2.0940 S   0  0  0  0  0  0  0  0  0  0  0  0
    6.4930   12.1520   -3.7820 C   0  0  0  0  0  0  0  0  0  0  0  0
    8.6620   11.9660   -2.9760 C   0  0  0  0  0  0  0  0  0  0  0  0
    7.8140   12.6670   -3.8250 C   0  0  0  0  0  0  0  0  0  0  0  0
   -0.8590   -0.8840    0.5100 H   0  0  0  0  0  0  0  0  0  0  0  0
    0.1610   -0.2710   -1.6770 H   0  0  0  0  0  0  0  0  0  0  0  0
   -0.6010    0.6360    2.4650 H   0  0  0  0  0  0  0  0  0  0  0  0
    1.4410    1.8200   -1.9100 H   0  0  0  0  0  0  0  0  0  0  0  0
    0.6400    2.7470    2.2430 H   0  0  0  0  0  0  0  0  0  0  0  0
    1.4000    4.0080   -2.1230 H   0  0  0  0  0  0  0  0  0  0  0  0
    5.9620    9.9020   -0.2210 H   0  0  0  0  0  0  0  0  0  0  0  0
    5.2120   13.2840   -5.2060 H   0  0  0  0  0  0  0  0  0  0  0  0
    9.7180   12.1370   -2.8100 H   0  0  0  0  0  0  0  0  0  0  0  0
    8.1140   13.4980   -4.4540 H   0  0  0  0  0  0  0  0  0  0  0  0
  1 29  1  0  0  0  0
  1  3  2  0  0  0  0
  2  1  1  0  0  0  0
  3 31  1  0  0  0  0
  4  2  2  0  0  0  0
  4  6  1  0  0  0  0
  5  3  1  0  0  0  0
  5 33  1  0  0  0  0
  6  5  2  0  0  0  0
  7  6  1  0  0  0  0
  7  9  1  0  0  0  0
  8  7  2  0  0  0  0
  9 11  2  0  0  0  0
 10  8  1  0  0  0  0
 10 13  2  0  0  0  0
 11 14  1  0  0  0  0
 12  9  1  0  0  0  0
 12 15  2  0  0  0  0
 13 12  1  0  0  0  0
 15 14  1  0  0  0  0
 16 13  1  0  0  0  0
 16 17  2  0  0  0  0
 18 20  2  0  0  0  0
 18 16  1  0  0  0  0
 19 35  1  0  0  0  0
 19 17  1  0  0  0  0
 20 19  1  0  0  0  0
 21 20  1  0  0  0  0
 22 21  1  0  0  0  0
 23 21  2  0  0  0  0
 23 25  1  0  0  0  0
 24 22  2  0  0  0  0
 24 26  1  0  0  0  0
 26 23  1  0  0  0  0
 27 37  1  0  0  0  0
 27 25  2  0  0  0  0
 28 26  2  0  0  0  0
 28 27  1  0  0  0  0
 30  2  1  0  0  0  0
 32  4  1  0  0  0  0
 34  8  1  0  0  0  0
 36 24  1  0  0  0  0
 38 28  1  0  0  0  0
M  END
$$$$
scan_sander_basal/min_pdbs/min_pdb_C306_045.pdb
 OpenBabel09051719333D

 38 43  0  0  0  0  0  0  0  0999 V2000
   -0.3000    0.0730    0.4420 C   0  0  0  0  0  0  0  0  0  0  0  0
    0.4600    0.2870   -0.7180 C   0  0  0  0  0  0  0  0  0  0  0  0
   -0.3380    1.0520    1.4460 C   0  0  0  0  0  0  0  0  0  0  0  0
    1.1830    1.4820   -0.8710 C   0  0  0  0  0  0  0  0  0  0  0  0
    0.3870    2.2450    1.2890 C   0  0  0  0  0  0  0  0  0  0  0  0
    1.1640    2.4830    0.1300 C   0  0  0  0  0  0  0  0  0  0  0  0
    1.9340    3.7520   -0.0560 C   0  0  0  0  0  0  0  0  0  0  0  0
    1.8900    4.4440   -1.2880 C   0  0  0  0  0  0  0  0  0  0  0  0
    2.7270    4.3470    0.9540 C   0  0  0  0  0  0  0  0  0  0  0  0
    2.5470    5.5970   -1.5270 N   0  0  0  0  0  0  0  0  0  0  0  0
    2.9020    3.8290    2.1860 N   0  0  0  0  0  0  0  0  0  0  0  0
    3.4110    5.5340    0.7140 C   0  0  0  0  0  0  0  0  0  0  0  0
    3.3110    6.1540   -0.5560 C   0  0  0  0  0  0  0  0  0  0  0  0
    3.8970    4.8760    2.9520 S   0  0  0  0  0  0  0  0  0  0  0  0
    4.1270    5.9800    1.7700 N   0  0  0  0  0  0  0  0  0  0  0  0
    3.9840    7.4200   -0.9150 C   0  0  0  0  0  0  0  0  0  0  0  0
    4.8730    8.0550   -0.1590 N   0  0  0  0  0  0  0  0  0  0  0  0
    3.6260    8.2000   -2.4520 B   0  0  0  0  0  0  0  0  0  0  0  0
    5.3280    9.2070   -0.7600 C   0  0  0  0  0  0  0  0  0  0  0  0
    4.7600    9.4340   -1.9890 C   0  0  0  0  0  0  0  0  0  0  0  0
    5.1200   10.5630   -2.8030 C   0  0  0  0  0  0  0  0  0  0  0  0
    4.0140   11.4870   -3.8420 C   0  0  0  0  0  0  0  0  0  0  0  0
    6.3790   11.1020   -2.8860 C   0  0  0  0  0  0  0  0  0  0  0  0
    5.3090   12.5860   -4.3640 C   0  0  0  0  0  0  0  0  0  0  0  0
    7.8780   10.5750   -2.1740 S   0  0  0  0  0  0  0  0  0  0  0  0
    6.4570   12.1850   -3.7440 C   0  0  0  0  0  0  0  0  0  0  0  0
    8.6580   11.9320   -3.0470 C   0  0  0  0  0  0  0  0  0  0  0  0
    7.7850   12.6770   -3.8320 C   0  0  0  0  0  0  0  0  0  0  0  0
   -0.8600   -0.8510    0.5620 H   0  0  0  0  0  0  0  0  0  0  0  0
    0.4910   -0.4710   -1.4950 H   0  0  0  0  0  0  0  0  0  0  0  0
   -0.9280    0.8880    2.3430 H   0  0  0  0  0  0  0  0  0  0  0  0
    1.7740    1.6310   -1.7700 H   0  0  0  0  0  0  0  0  0  0  0  0
    0.3420    2.9980    2.0700 H   0  0  0  0  0  0  0  0  0  0  0  0
    1.2920    4.0600   -2.1140 H   0  0  0  0  0  0  0  0  0  0  0  0
    6.0470    9.8240   -0.2380 H   0  0  0  0  0  0  0  0  0  0  0  0
    5.1350   13.3880   -5.0680 H   0  0  0  0  0  0  0  0  0  0  0  0
    9.7230   12.0770   -2.9260 H   0  0  0  0  0  0  0  0  0  0  0  0
    8.0720   13.5220   -4.4460 H   0  0  0  0  0  0  0  0  0  0  0  0
  1 29  1  0  0  0  0
  1  3  2  0  0  0  0
  2  1  1  0  0  0  0
  3 31  1  0  0  0  0
  4  2  2  0  0  0  0
  4  6  1  0  0  0  0
  5  3  1  0  0  0  0
  5 33  1  0  0  0  0
  6  5  2  0  0  0  0
  7  6  1  0  0  0  0
  7  9  1  0  0  0  0
  8  7  2  0  0  0  0
  9 11  2  0  0  0  0
 10  8  1  0  0  0  0
 10 13  2  0  0  0  0
 11 14  1  0  0  0  0
 12  9  1  0  0  0  0
 12 15  2  0  0  0  0
 13 12  1  0  0  0  0
 15 14  1  0  0  0  0
 16 13  1  0  0  0  0
 16 17  2  0  0  0  0
 18 20  2  0  0  0  0
 18 16  1  0  0  0  0
 19 35  1  0  0  0  0
 19 17  1  0  0  0  0
 20 19  1  0  0  0  0
 21 20  1  0  0  0  0
 22 21  1  0  0  0  0
 23 21  2  0  0  0  0
 23 25  1  0  0  0  0
 24 22  2  0  0  0  0
 24 26  1  0  0  0  0
 26 23  1  0  0  0  0
 27 37  1  0  0  0  0
 27 25  2  0  0  0  0
 28 26  2  0  0  0  0
 28 27  1  0  0  0  0
 30  2  1  0  0  0  0
 32  4  1  0  0  0  0
 34  8  1  0  0  0  0
 36 24  1  0  0  0  0
 38 28  1  0  0  0  0
M  END
$$$$
scan_sander_basal/min_pdbs/min_pdb_C306_060.pdb
 OpenBabel09051719333D

 38 43  0  0  0  0  0  0  0  0999 V2000
   -0.3140    0.0970    0.4670 C   0  0  0  0  0  0  0  0  0  0  0  0
    0.6200    0.2010   -0.5760 C   0  0  0  0  0  0  0  0  0  0  0  0
   -0.5190    1.1800    1.3370 C   0  0  0  0  0  0  0  0  0  0  0  0
    1.3480    1.3900   -0.7480 C   0  0  0  0  0  0  0  0  0  0  0  0
    0.2100    2.3670    1.1610 C   0  0  0  0  0  0  0  0  0  0  0  0
    1.1560    2.4920    0.1170 C   0  0  0  0  0  0  0  0  0  0  0  0
    1.9250    3.7520   -0.0780 C   0  0  0  0  0  0  0  0  0  0  0  0
    1.8250    4.4850   -1.2810 C   0  0  0  0  0  0  0  0  0  0  0  0
    2.7790    4.2940    0.9070 C   0  0  0  0  0  0  0  0  0  0  0  0
    2.4920    5.6340   -1.5150 N   0  0  0  0  0  0  0  0  0  0  0  0
    2.9900    3.7300    2.1130 N   0  0  0  0  0  0  0  0  0  0  0  0
    3.4720    5.4760    0.6740 C   0  0  0  0  0  0  0  0  0  0  0  0
    3.3190    6.1420   -0.5680 C   0  0  0  0  0  0  0  0  0  0  0  0
    4.0430    4.7310    2.8650 S   0  0  0  0  0  0  0  0  0  0  0  0
    4.2450    5.8710    1.7100 N   0  0  0  0  0  0  0  0  0  0  0  0
    3.9980    7.4060   -0.9180 C   0  0  0  0  0  0  0  0  0  0  0  0
    4.9380    7.9960   -0.1870 N   0  0  0  0  0  0  0  0  0  0  0  0
    3.5780    8.2480   -2.4050 B   0  0  0  0  0  0  0  0  0  0  0  0
    5.3860    9.1600   -0.7710 C   0  0  0  0  0  0  0  0  0  0  0  0
    4.7600    9.4420   -1.9590 C   0  0  0  0  0  0  0  0  0  0  0  0
    5.1010   10.5920   -2.7520 C   0  0  0  0  0  0  0  0  0  0  0  0
    3.9620   11.5740   -3.6980 C   0  0  0  0  0  0  0  0  0  0  0  0
    6.3660   11.1100   -2.8820 C   0  0  0  0  0  0  0  0  0  0  0  0
    5.2520   12.6660   -4.2500 C   0  0  0  0  0  0  0  0  0  0  0  0
    7.8880   10.5280   -2.2690 S   0  0  0  0  0  0  0  0  0  0  0  0
    6.4220   12.2200   -3.7050 C   0  0  0  0  0  0  0  0  0  0  0  0
    8.6500   11.9000   -3.1340 C   0  0  0  0  0  0  0  0  0  0  0  0
    7.7530   12.6890   -3.8460 C   0  0  0  0  0  0  0  0  0  0  0  0
   -0.8760   -0.8220    0.6030 H   0  0  0  0  0  0  0  0  0  0  0  0
    0.7800   -0.6370   -1.2470 H   0  0  0  0  0  0  0  0  0  0  0  0
   -1.2400    1.0990    2.1460 H   0  0  0  0  0  0  0  0  0  0  0  0
    2.0710    1.4620   -1.5550 H   0  0  0  0  0  0  0  0  0  0  0  0
    0.0490    3.2010    1.8390 H   0  0  0  0  0  0  0  0  0  0  0  0
    1.1790    4.1340   -2.0860 H   0  0  0  0  0  0  0  0  0  0  0  0
    6.1450    9.7440   -0.2670 H   0  0  0  0  0  0  0  0  0  0  0  0
    5.0590   13.4960   -4.9140 H   0  0  0  0  0  0  0  0  0  0  0  0
    9.7230   12.0200   -3.0640 H   0  0  0  0  0  0  0  0  0  0  0  0
    8.0260   13.5510   -4.4440 H   0  0  0  0  0  0  0  0  0  0  0  0
  1 29  1  0  0  0  0
  1  3  2  0  0  0  0
  2  1  1  0  0  0  0
  3 31  1  0  0  0  0
  4  2  2  0  0  0  0
  4  6  1  0  0  0  0
  5  3  1  0  0  0  0
  5 33  1  0  0  0  0
  6  5  2  0  0  0  0
  7  6  1  0  0  0  0
  7  9  1  0  0  0  0
  8  7  2  0  0  0  0
  9 11  2  0  0  0  0
 10  8  1  0  0  0  0
 10 13  2  0  0  0  0
 11 14  1  0  0  0  0
 12  9  1  0  0  0  0
 12 15  2  0  0  0  0
 13 12  1  0  0  0  0
 15 14  1  0  0  0  0
 16 13  1  0  0  0  0
 16 17  2  0  0  0  0
 18 20  2  0  0  0  0
 18 16  1  0  0  0  0
 19 35  1  0  0  0  0
 19 17  1  0  0  0  0
 20 19  1  0  0  0  0
 21 20  1  0  0  0  0
 22 21  2  0  0  0  0
 23 21  1  0  0  0  0
 23 25  2  0  0  0  0
 24 26  2  0  0  0  0
 24 22  1  0  0  0  0
 26 23  1  0  0  0  0
 27 37  1  0  0  0  0
 27 25  1  0  0  0  0
 28 26  1  0  0  0  0
 28 27  2  0  0  0  0
 30  2  1  0  0  0  0
 32  4  1  0  0  0  0
 34  8  1  0  0  0  0
 36 24  1  0  0  0  0
 38 28  1  0  0  0  0
M  END
$$$$
scan_sander_basal/min_pdbs/min_pdb_C306_075.pdb
 OpenBabel09051719333D

 38 43  0  0  0  0  0  0  0  0999 V2000
   -0.3370    0.1190    0.4810 C   0  0  0  0  0  0  0  0  0  0  0  0
    0.7560    0.1360   -0.3990 C   0  0  0  0  0  0  0  0  0  0  0  0
   -0.6940    1.2830    1.1800 C   0  0  0  0  0  0  0  0  0  0  0  0
    1.4910    1.3190   -0.5810 C   0  0  0  0  0  0  0  0  0  0  0  0
    0.0420    2.4650    0.9960 C   0  0  0  0  0  0  0  0  0  0  0  0
    1.1460    2.5000    0.1130 C   0  0  0  0  0  0  0  0  0  0  0  0
    1.9210    3.7530   -0.0880 C   0  0  0  0  0  0  0  0  0  0  0  0
    1.7730    4.5240   -1.2610 C   0  0  0  0  0  0  0  0  0  0  0  0
    2.8330    4.2470    0.8690 C   0  0  0  0  0  0  0  0  0  0  0  0
    2.4490    5.6680   -1.4920 N   0  0  0  0  0  0  0  0  0  0  0  0
    3.0870    3.6410    2.0450 N   0  0  0  0  0  0  0  0  0  0  0  0
    3.5350    5.4230    0.6400 C   0  0  0  0  0  0  0  0  0  0  0  0
    3.3320    6.1310   -0.5720 C   0  0  0  0  0  0  0  0  0  0  0  0
    4.1930    4.5990    2.7770 S   0  0  0  0  0  0  0  0  0  0  0  0
    4.3630    5.7710    1.6490 N   0  0  0  0  0  0  0  0  0  0  0  0
    4.0160    7.3940   -0.9160 C   0  0  0  0  0  0  0  0  0  0  0  0
    5.0030    7.9440   -0.2160 N   0  0  0  0  0  0  0  0  0  0  0  0
    3.5390    8.2900   -2.3530 B   0  0  0  0  0  0  0  0  0  0  0  0
    5.4440    9.1170   -0.7850 C   0  0  0  0  0  0  0  0  0  0  0  0
    4.7640    9.4490   -1.9310 C   0  0  0  0  0  0  0  0  0  0  0  0
    5.0870   10.6170   -2.7030 C   0  0  0  0  0  0  0  0  0  0  0  0
    3.9220   11.6490   -3.5600 C   0  0  0  0  0  0  0  0  0  0  0  0
    6.3530   11.1170   -2.8800 C   0  0  0  0  0  0  0  0  0  0  0  0
    5.2030   12.7350   -4.1410 C   0  0  0  0  0  0  0  0  0  0  0  0
    7.8930   10.4900   -2.3630 S   0  0  0  0  0  0  0  0  0  0  0  0
    6.3900   12.2520   -3.6700 C   0  0  0  0  0  0  0  0  0  0  0  0
    8.6370   11.8750   -3.2220 C   0  0  0  0  0  0  0  0  0  0  0  0
    7.7210   12.7020   -3.8630 C   0  0  0  0  0  0  0  0  0  0  0  0
   -0.9050   -0.7960    0.6240 H   0  0  0  0  0  0  0  0  0  0  0  0
    1.0340   -0.7660   -0.9380 H   0  0  0  0  0  0  0  0  0  0  0  0
   -1.5390    1.2690    1.8640 H   0  0  0  0  0  0  0  0  0  0  0  0
    2.3380    1.3260   -1.2620 H   0  0  0  0  0  0  0  0  0  0  0  0
   -0.2350    3.3620    1.5410 H   0  0  0  0  0  0  0  0  0  0  0  0
    1.0820    4.2070   -2.0430 H   0  0  0  0  0  0  0  0  0  0  0  0
    6.2370    9.6720   -0.3010 H   0  0  0  0  0  0  0  0  0  0  0  0
    4.9920   13.5890   -4.7690 H   0  0  0  0  0  0  0  0  0  0  0  0
    9.7140   11.9740   -3.2020 H   0  0  0  0  0  0  0  0  0  0  0  0
    7.9810   13.5780   -4.4470 H   0  0  0  0  0  0  0  0  0  0  0  0
  1 29  1  0  0  0  0
  1  3  2  0  0  0  0
  2  1  1  0  0  0  0
  3 31  1  0  0  0  0
  4  2  2  0  0  0  0
  4  6  1  0  0  0  0
  5  3  1  0  0  0  0
  5 33  1  0  0  0  0
  6  5  2  0  0  0  0
  7  6  1  0  0  0  0
  7  9  1  0  0  0  0
  8  7  2  0  0  0  0
  9 11  2  0  0  0  0
 10  8  1  0  0  0  0
 10 13  2  0  0  0  0
 11 14  1  0  0  0  0
 12  9  1  0  0  0  0
 12 15  2  0  0  0  0
 13 12  1  0  0  0  0
 15 14  1  0  0  0  0
 16 13  1  0  0  0  0
 16 17  2  0  0  0  0
 18 20  2  0  0  0  0
 18 16  1  0  0  0  0
 19 35  1  0  0  0  0
 19 17  1  0  0  0  0
 20 19  1  0  0  0  0
 21 20  1  0  0  0  0
 22 21  2  0  0  0  0
 23 21  1  0  0  0  0
 23 25  2  0  0  0  0
 24 26  2  0  0  0  0
 24 22  1  0  0  0  0
 26 23  1  0  0  0  0
 27 37  1  0  0  0  0
 27 25  1  0  0  0  0
 28 26  1  0  0  0  0
 28 27  2  0  0  0  0
 30  2  1  0  0  0  0
 32  4  1  0  0  0  0
 34  8  1  0  0  0  0
 36 24  1  0  0  0  0
 38 28  1  0  0  0  0
M  END
$$$$
scan_sander_basal/min_pdbs/min_pdb_C306_090.pdb
 OpenBabel09051719333D

 38 43  0  0  0  0  0  0  0  0999 V2000
   -0.3640    0.1400    0.4940 C   0  0  0  0  0  0  0  0  0  0  0  0
    0.8630    0.0920   -0.1880 C   0  0  0  0  0  0  0  0  0  0  0  0
   -0.8450    1.3620    0.9890 C   0  0  0  0  0  0  0  0  0  0  0  0
    1.6070    1.2680   -0.3750 C   0  0  0  0  0  0  0  0  0  0  0  0
   -0.0990    2.5370    0.8010 C   0  0  0  0  0  0  0  0  0  0  0  0
    1.1370    2.5070    0.1170 C   0  0  0  0  0  0  0  0  0  0  0  0
    1.9230    3.7530   -0.0880 C   0  0  0  0  0  0  0  0  0  0  0  0
    1.7300    4.5590   -1.2300 C   0  0  0  0  0  0  0  0  0  0  0  0
    2.8880    4.2030    0.8360 C   0  0  0  0  0  0  0  0  0  0  0  0
    2.4140    5.6990   -1.4610 N   0  0  0  0  0  0  0  0  0  0  0  0
    3.1890    3.5580    1.9800 N   0  0  0  0  0  0  0  0  0  0  0  0
    3.5980    5.3740    0.6070 C   0  0  0  0  0  0  0  0  0  0  0  0
    3.3480    6.1210   -0.5730 C   0  0  0  0  0  0  0  0  0  0  0  0
    4.3440    4.4770    2.6850 S   0  0  0  0  0  0  0  0  0  0  0  0
    4.4810    5.6790    1.5840 N   0  0  0  0  0  0  0  0  0  0  0  0
    4.0370    7.3820   -0.9140 C   0  0  0  0  0  0  0  0  0  0  0  0
    5.0660    7.8950   -0.2470 N   0  0  0  0  0  0  0  0  0  0  0  0
    3.5050    8.3280   -2.2990 B   0  0  0  0  0  0  0  0  0  0  0  0
    5.4990    9.0780   -0.8030 C   0  0  0  0  0  0  0  0  0  0  0  0
    4.7700    9.4540   -1.9040 C   0  0  0  0  0  0  0  0  0  0  0  0
    5.0750   10.6400   -2.6580 C   0  0  0  0  0  0  0  0  0  0  0  0
    3.8870   11.7150   -3.4260 C   0  0  0  0  0  0  0  0  0  0  0  0
    6.3400   11.1240   -2.8830 C   0  0  0  0  0  0  0  0  0  0  0  0
    5.1570   12.7970   -4.0380 C   0  0  0  0  0  0  0  0  0  0  0  0
    7.8910   10.4570   -2.4610 S   0  0  0  0  0  0  0  0  0  0  0  0
    6.3570   12.2810   -3.6400 C   0  0  0  0  0  0  0  0  0  0  0  0
    8.6160   11.8550   -3.3150 C   0  0  0  0  0  0  0  0  0  0  0  0
    7.6850   12.7150   -3.8860 C   0  0  0  0  0  0  0  0  0  0  0  0
   -0.9390   -0.7700    0.6400 H   0  0  0  0  0  0  0  0  0  0  0  0
    1.2370   -0.8550   -0.5690 H   0  0  0  0  0  0  0  0  0  0  0  0
   -1.7930    1.3980    1.5190 H   0  0  0  0  0  0  0  0  0  0  0  0
    2.5570    1.2270   -0.9000 H   0  0  0  0  0  0  0  0  0  0  0  0
   -0.4730    3.4800    1.1880 H   0  0  0  0  0  0  0  0  0  0  0  0
    0.9970    4.2770   -1.9850 H   0  0  0  0  0  0  0  0  0  0  0  0
    6.3240    9.6060   -0.3440 H   0  0  0  0  0  0  0  0  0  0  0  0
    4.9310   13.6730   -4.6300 H   0  0  0  0  0  0  0  0  0  0  0  0
    9.6950   11.9360   -3.3460 H   0  0  0  0  0  0  0  0  0  0  0  0
    7.9310   13.6030   -4.4570 H   0  0  0  0  0  0  0  0  0  0  0  0
  1 29  1  0  0  0  0
  1  3  2  0  0  0  0
  2  1  1  0  0  0  0
  3 31  1  0  0  0  0
  4  2  2  0  0  0  0
  4  6  1  0  0  0  0
  5  3  1  0  0  0  0
  5 33  1  0  0  0  0
  6  5  2  0  0  0  0
  7  6  1  0  0  0  0
  7  9  1  0  0  0  0
  8  7  2  0  0  0  0
  9 11  2  0  0  0  0
 10  8  1  0  0  0  0
 10 13  2  0  0  0  0
 11 14  1  0  0  0  0
 12  9  1  0  0  0  0
 12 15  2  0  0  0  0
 13 12  1  0  0  0  0
 15 14  1  0  0  0  0
 16 13  1  0  0  0  0
 16 17  2  0  0  0  0
 18 20  2  0  0  0  0
 18 16  1  0  0  0  0
 19 35  1  0  0  0  0
 19 17  1  0  0  0  0
 20 19  1  0  0  0  0
 21 20  1  0  0  0  0
 22 21  2  0  0  0  0
 23 21  1  0  0  0  0
 23 25  2  0  0  0  0
 24 26  2  0  0  0  0
 24 22  1  0  0  0  0
 26 23  1  0  0  0  0
 27 25  1  0  0  0  0
 28 26  1  0  0  0  0
 28 27  2  0  0  0  0
 30  2  1  0  0  0  0
 32  4  1  0  0  0  0
 34  8  1  0  0  0  0
 36 24  1  0  0  0  0
 37 27  1  0  0  0  0
 38 28  1  0  0  0  0
M  END
$$$$
scan_sander_basal/min_pdbs/min_pdb_C306_105.pdb
 OpenBabel09051719333D

 38 43  0  0  0  0  0  0  0  0999 V2000
   -0.3960    0.1620    0.5060 C   0  0  0  0  0  0  0  0  0  0  0  0
    0.9290    0.0730    0.0520 C   0  0  0  0  0  0  0  0  0  0  0  0
   -0.9650    1.4170    0.7710 C   0  0  0  0  0  0  0  0  0  0  0  0
    1.6850    1.2410   -0.1370 C   0  0  0  0  0  0  0  0  0  0  0  0
   -0.2070    2.5850    0.5820 C   0  0  0  0  0  0  0  0  0  0  0  0
    1.1290    2.5140    0.1260 C   0  0  0  0  0  0  0  0  0  0  0  0
    1.9260    3.7520   -0.0820 C   0  0  0  0  0  0  0  0  0  0  0  0
    1.6930    4.5930   -1.1920 C   0  0  0  0  0  0  0  0  0  0  0  0
    2.9420    4.1620    0.8060 C   0  0  0  0  0  0  0  0  0  0  0  0
    2.3840    5.7280   -1.4250 N   0  0  0  0  0  0  0  0  0  0  0  0
    3.2860    3.4830    1.9180 N   0  0  0  0  0  0  0  0  0  0  0  0
    3.6590    5.3280    0.5740 C   0  0  0  0  0  0  0  0  0  0  0  0
    3.3660    6.1110   -0.5710 C   0  0  0  0  0  0  0  0  0  0  0  0
    4.4870    4.3650    2.5910 S   0  0  0  0  0  0  0  0  0  0  0  0
    4.5910    5.5940    1.5160 N   0  0  0  0  0  0  0  0  0  0  0  0
    4.0590    7.3710   -0.9110 C   0  0  0  0  0  0  0  0  0  0  0  0
    5.1270    7.8500   -0.2810 N   0  0  0  0  0  0  0  0  0  0  0  0
    3.4780    8.3630   -2.2440 B   0  0  0  0  0  0  0  0  0  0  0  0
    5.5520    9.0410   -0.8260 C   0  0  0  0  0  0  0  0  0  0  0  0
    4.7790    9.4580   -1.8800 C   0  0  0  0  0  0  0  0  0  0  0  0
    5.0670   10.6590   -2.6160 C   0  0  0  0  0  0  0  0  0  0  0  0
    3.8620   11.7720   -3.2970 C   0  0  0  0  0  0  0  0  0  0  0  0
    6.3280   11.1290   -2.8880 C   0  0  0  0  0  0  0  0  0  0  0  0
    5.1200   12.8510   -3.9410 C   0  0  0  0  0  0  0  0  0  0  0  0
    7.8860   10.4270   -2.5580 S   0  0  0  0  0  0  0  0  0  0  0  0
    6.3280   12.3060   -3.6140 C   0  0  0  0  0  0  0  0  0  0  0  0
    8.5930   11.8370   -3.4090 C   0  0  0  0  0  0  0  0  0  0  0  0
    7.6500   12.7270   -3.9110 C   0  0  0  0  0  0  0  0  0  0  0  0
   -0.9820   -0.7420    0.6530 H   0  0  0  0  0  0  0  0  0  0  0  0
    1.3710   -0.8990   -0.1510 H   0  0  0  0  0  0  0  0  0  0  0  0
   -1.9910    1.4860    1.1240 H   0  0  0  0  0  0  0  0  0  0  0  0
    2.7110    1.1680   -0.4850 H   0  0  0  0  0  0  0  0  0  0  0  0
   -0.6510    3.5540    0.7910 H   0  0  0  0  0  0  0  0  0  0  0  0
    0.9210    4.3430   -1.9190 H   0  0  0  0  0  0  0  0  0  0  0  0
    6.4070    9.5430   -0.3920 H   0  0  0  0  0  0  0  0  0  0  0  0
    4.8810   13.7460   -4.4980 H   0  0  0  0  0  0  0  0  0  0  0  0
    9.6710   11.9020   -3.4890 H   0  0  0  0  0  0  0  0  0  0  0  0
    7.8840   13.6260   -4.4700 H   0  0  0  0  0  0  0  0  0  0  0  0
  1 29  1  0  0  0  0
  1  3  2  0  0  0  0
  2  1  1  0  0  0  0
  3 31  1  0  0  0  0
  4  2  2  0  0  0  0
  4  6  1  0  0  0  0
  5  3  1  0  0  0  0
  5 33  1  0  0  0  0
  6  5  2  0  0  0  0
  7  6  1  0  0  0  0
  7  9  1  0  0  0  0
  8  7  2  0  0  0  0
  9 11  2  0  0  0  0
 10  8  1  0  0  0  0
 10 13  2  0  0  0  0
 11 14  1  0  0  0  0
 12  9  1  0  0  0  0
 12 15  2  0  0  0  0
 13 12  1  0  0  0  0
 15 14  1  0  0  0  0
 16 13  1  0  0  0  0
 16 17  2  0  0  0  0
 18 20  2  0  0  0  0
 18 16  1  0  0  0  0
 19 35  1  0  0  0  0
 19 17  1  0  0  0  0
 20 19  1  0  0  0  0
 21 20  1  0  0  0  0
 22 21  2  0  0  0  0
 23 21  1  0  0  0  0
 23 25  2  0  0  0  0
 24 26  2  0  0  0  0
 24 22  1  0  0  0  0
 26 23  1  0  0  0  0
 27 25  1  0  0  0  0
 28 26  1  0  0  0  0
 28 27  2  0  0  0  0
 30  2  1  0  0  0  0
 32  4  1  0  0  0  0
 34  8  1  0  0  0  0
 36 24  1  0  0  0  0
 37 27  1  0  0  0  0
 38 28  1  0  0  0  0
M  END
$$$$
scan_sander_basal/min_pdbs/min_pdb_C306_120.pdb
 OpenBabel09051719333D

 38 43  0  0  0  0  0  0  0  0999 V2000
   -0.4360    0.1840    0.5130 C   0  0  0  0  0  0  0  0  0  0  0  0
    0.9480    0.0780    0.3080 C   0  0  0  0  0  0  0  0  0  0  0  0
   -1.0490    1.4480    0.5310 C   0  0  0  0  0  0  0  0  0  0  0  0
    1.7200    1.2370    0.1210 C   0  0  0  0  0  0  0  0  0  0  0  0
   -0.2740    2.6040    0.3430 C   0  0  0  0  0  0  0  0  0  0  0  0
    1.1220    2.5180    0.1380 C   0  0  0  0  0  0  0  0  0  0  0  0
    1.9350    3.7490   -0.0720 C   0  0  0  0  0  0  0  0  0  0  0  0
    1.6660    4.6230   -1.1480 C   0  0  0  0  0  0  0  0  0  0  0  0
    2.9960    4.1240    0.7800 C   0  0  0  0  0  0  0  0  0  0  0  0
    2.3630    5.7540   -1.3850 N   0  0  0  0  0  0  0  0  0  0  0  0
    3.3790    3.4170    1.8620 N   0  0  0  0  0  0  0  0  0  0  0  0
    3.7190    5.2870    0.5440 C   0  0  0  0  0  0  0  0  0  0  0  0
    3.3880    6.1020   -0.5680 C   0  0  0  0  0  0  0  0  0  0  0  0
    4.6200    4.2680    2.5020 S   0  0  0  0  0  0  0  0  0  0  0  0
    4.6960    5.5190    1.4500 N   0  0  0  0  0  0  0  0  0  0  0  0
    4.0840    7.3590   -0.9080 C   0  0  0  0  0  0  0  0  0  0  0  0
    5.1860    7.8070   -0.3160 N   0  0  0  0  0  0  0  0  0  0  0  0
    3.4590    8.3920   -2.1890 B   0  0  0  0  0  0  0  0  0  0  0  0
    5.6040    9.0050   -0.8500 C   0  0  0  0  0  0  0  0  0  0  0  0
    4.7900    9.4590   -1.8580 C   0  0  0  0  0  0  0  0  0  0  0  0
    5.0630   10.6740   -2.5760 C   0  0  0  0  0  0  0  0  0  0  0  0
    3.8460   11.8210   -3.1750 C   0  0  0  0  0  0  0  0  0  0  0  0
    6.3170   11.1340   -2.8940 C   0  0  0  0  0  0  0  0  0  0  0  0
    5.0890   12.8980   -3.8490 C   0  0  0  0  0  0  0  0  0  0  0  0
    7.8790   10.4030   -2.6530 S   0  0  0  0  0  0  0  0  0  0  0  0
    6.3030   12.3290   -3.5910 C   0  0  0  0  0  0  0  0  0  0  0  0
    8.5670   11.8230   -3.5000 C   0  0  0  0  0  0  0  0  0  0  0  0
    7.6160   12.7380   -3.9370 C   0  0  0  0  0  0  0  0  0  0  0  0
   -1.0340   -0.7110    0.6590 H   0  0  0  0  0  0  0  0  0  0  0  0
    1.4230   -0.8990    0.2960 H   0  0  0  0  0  0  0  0  0  0  0  0
   -2.1200    1.5300    0.6910 H   0  0  0  0  0  0  0  0  0  0  0  0
    2.7910    1.1490   -0.0350 H   0  0  0  0  0  0  0  0  0  0  0  0
   -0.7540    3.5790    0.3620 H   0  0  0  0  0  0  0  0  0  0  0  0
    0.8590    4.4030   -1.8470 H   0  0  0  0  0  0  0  0  0  0  0  0
    6.4850    9.4840   -0.4440 H   0  0  0  0  0  0  0  0  0  0  0  0
    4.8380   13.8100   -4.3720 H   0  0  0  0  0  0  0  0  0  0  0  0
    9.6410   11.8760   -3.6270 H   0  0  0  0  0  0  0  0  0  0  0  0
    7.8370   13.6480   -4.4830 H   0  0  0  0  0  0  0  0  0  0  0  0
  1  3  1  0  0  0  0
  1 29  1  0  0  0  0
  2  1  2  0  0  0  0
  3 31  1  0  0  0  0
  4  6  2  0  0  0  0
  4  2  1  0  0  0  0
  5 33  1  0  0  0  0
  5  3  2  0  0  0  0
  6  5  1  0  0  0  0
  7  6  1  0  0  0  0
  7  9  1  0  0  0  0
  8  7  2  0  0  0  0
  9 11  2  0  0  0  0
 10  8  1  0  0  0  0
 10 13  2  0  0  0  0
 11 14  1  0  0  0  0
 12  9  1  0  0  0  0
 12 15  2  0  0  0  0
 13 12  1  0  0  0  0
 15 14  1  0  0  0  0
 16 13  1  0  0  0  0
 16 17  2  0  0  0  0
 18 20  2  0  0  0  0
 18 16  1  0  0  0  0
 19 35  1  0  0  0  0
 19 17  1  0  0  0  0
 20 19  1  0  0  0  0
 21 20  1  0  0  0  0
 22 21  1  0  0  0  0
 23 25  1  0  0  0  0
 23 21  2  0  0  0  0
 24 26  1  0  0  0  0
 24 22  2  0  0  0  0
 26 23  1  0  0  0  0
 27 25  2  0  0  0  0
 28 26  2  0  0  0  0
 28 27  1  0  0  0  0
 30  2  1  0  0  0  0
 32  4  1  0  0  0  0
 34  8  1  0  0  0  0
 36 24  1  0  0  0  0
 37 27  1  0  0  0  0
 38 28  1  0  0  0  0
M  END
$$$$
scan_sander_basal/min_pdbs/min_pdb_C306_135.pdb
 OpenBabel09051719333D

 38 43  0  0  0  0  0  0  0  0999 V2000
   -0.4800    0.2020    0.5120 C   0  0  0  0  0  0  0  0  0  0  0  0
    0.9180    0.1020    0.5600 C   0  0  0  0  0  0  0  0  0  0  0  0
   -1.0860    1.4480    0.2840 C   0  0  0  0  0  0  0  0  0  0  0  0
    1.7100    1.2480    0.3810 C   0  0  0  0  0  0  0  0  0  0  0  0
   -0.2910    2.5920    0.1050 C   0  0  0  0  0  0  0  0  0  0  0  0
    1.1220    2.5170    0.1560 C   0  0  0  0  0  0  0  0  0  0  0  0
    1.9540    3.7420   -0.0510 C   0  0  0  0  0  0  0  0  0  0  0  0
    1.6460    4.6550   -1.0860 C   0  0  0  0  0  0  0  0  0  0  0  0
    3.0610    4.0870    0.7600 C   0  0  0  0  0  0  0  0  0  0  0  0
    2.3470    5.7810   -1.3290 N   0  0  0  0  0  0  0  0  0  0  0  0
    3.4830    3.3620    1.8160 N   0  0  0  0  0  0  0  0  0  0  0  0
    3.7860    5.2480    0.5190 C   0  0  0  0  0  0  0  0  0  0  0  0
    3.4140    6.0950   -0.5550 C   0  0  0  0  0  0  0  0  0  0  0  0
    4.7610    4.1850    2.4160 S   0  0  0  0  0  0  0  0  0  0  0  0
    4.8040    5.4520    1.3840 N   0  0  0  0  0  0  0  0  0  0  0  0
    4.1120    7.3510   -0.8990 C   0  0  0  0  0  0  0  0  0  0  0  0
    5.2480    7.7700   -0.3520 N   0  0  0  0  0  0  0  0  0  0  0  0
    3.4400    8.4220   -2.1230 B   0  0  0  0  0  0  0  0  0  0  0  0
    5.6570    8.9740   -0.8780 C   0  0  0  0  0  0  0  0  0  0  0  0
    4.8020    9.4630   -1.8340 C   0  0  0  0  0  0  0  0  0  0  0  0
    5.0570   10.6910   -2.5360 C   0  0  0  0  0  0  0  0  0  0  0  0
    3.8290   11.8680   -3.0480 C   0  0  0  0  0  0  0  0  0  0  0  0
    6.3010   11.1410   -2.9040 C   0  0  0  0  0  0  0  0  0  0  0  0
    5.0540   12.9450   -3.7560 C   0  0  0  0  0  0  0  0  0  0  0  0
    7.8610   10.3830   -2.7570 S   0  0  0  0  0  0  0  0  0  0  0  0
    6.2700   12.3530   -3.5720 C   0  0  0  0  0  0  0  0  0  0  0  0
    8.5290   11.8140   -3.6050 C   0  0  0  0  0  0  0  0  0  0  0  0
    7.5710   12.7520   -3.9730 C   0  0  0  0  0  0  0  0  0  0  0  0
   -1.0940   -0.6830    0.6510 H   0  0  0  0  0  0  0  0  0  0  0  0
    1.3890   -0.8620    0.7330 H   0  0  0  0  0  0  0  0  0  0  0  0
   -2.1690    1.5260    0.2480 H   0  0  0  0  0  0  0  0  0  0  0  0
    2.7920    1.1550    0.4120 H   0  0  0  0  0  0  0  0  0  0  0  0
   -0.7730    3.5500   -0.0630 H   0  0  0  0  0  0  0  0  0  0  0  0
    0.8070    4.4660   -1.7550 H   0  0  0  0  0  0  0  0  0  0  0  0
    6.5640    9.4310   -0.5050 H   0  0  0  0  0  0  0  0  0  0  0  0
    4.7920   13.8720   -4.2460 H   0  0  0  0  0  0  0  0  0  0  0  0
    9.5950   11.8550   -3.7830 H   0  0  0  0  0  0  0  0  0  0  0  0
    7.7790   13.6710   -4.5080 H   0  0  0  0  0  0  0  0  0  0  0  0
  1  2  1  0  0  0  0
  1 29  1  0  0  0  0
  2 30  1  0  0  0  0
  3  1  2  0  0  0  0
  4 32  1  0  0  0  0
  4  2  2  0  0  0  0
  5  6  2  0  0  0  0
  5  3  1  0  0  0  0
  6  4  1  0  0  0  0
  7  6  1  0  0  0  0
  7  9  1  0  0  0  0
  8  7  2  0  0  0  0
  9 11  2  0  0  0  0
 10  8  1  0  0  0  0
 10 13  2  0  0  0  0
 11 14  1  0  0  0  0
 12  9  1  0  0  0  0
 12 15  2  0  0  0  0
 13 12  1  0  0  0  0
 15 14  1  0  0  0  0
 16 13  1  0  0  0  0
 16 17  2  0  0  0  0
 18 20  2  0  0  0  0
 18 16  1  0  0  0  0
 19 35  1  0  0  0  0
 19 17  1  0  0  0  0
 20 19  1  0  0  0  0
 21 20  1  0  0  0  0
 22 21  2  0  0  0  0
 23 25  2  0  0  0  0
 23 21  1  0  0  0  0
 24 26  2  0  0  0  0
 24 22  1  0  0  0  0
 26 23  1  0  0  0  0
 27 25  1  0  0  0  0
 28 27  2  0  0  0  0
 28 26  1  0  0  0  0
 31  3  1  0  0  0  0
 33  5  1  0  0  0  0
 34  8  1  0  0  0  0
 36 24  1  0  0  0  0
 37 27  1  0  0  0  0
 38 28  1  0  0  0  0
M  END
$$$$
scan_sander_basal/min_pdbs/min_pdb_C306_150.pdb
 OpenBabel09051719333D

 38 43  0  0  0  0  0  0  0  0999 V2000
   -0.5320    0.2110    0.5010 C   0  0  0  0  0  0  0  0  0  0  0  0
    0.8350    0.1440    0.8050 C   0  0  0  0  0  0  0  0  0  0  0  0
   -1.0810    1.4110    0.0300 C   0  0  0  0  0  0  0  0  0  0  0  0
    1.6480    1.2780    0.6410 C   0  0  0  0  0  0  0  0  0  0  0  0
   -0.2640    2.5420   -0.1350 C   0  0  0  0  0  0  0  0  0  0  0  0
    1.1210    2.5100    0.1740 C   0  0  0  0  0  0  0  0  0  0  0  0
    1.9730    3.7370   -0.0220 C   0  0  0  0  0  0  0  0  0  0  0  0
    1.6370    4.6870   -1.0180 C   0  0  0  0  0  0  0  0  0  0  0  0
    3.1210    4.0590    0.7500 C   0  0  0  0  0  0  0  0  0  0  0  0
    2.3410    5.8080   -1.2680 N   0  0  0  0  0  0  0  0  0  0  0  0
    3.5760    3.3290    1.7900 N   0  0  0  0  0  0  0  0  0  0  0  0
    3.8480    5.2190    0.5010 C   0  0  0  0  0  0  0  0  0  0  0  0
    3.4430    6.0930   -0.5370 C   0  0  0  0  0  0  0  0  0  0  0  0
    4.8860    4.1310    2.3500 S   0  0  0  0  0  0  0  0  0  0  0  0
    4.9000    5.4060    1.3300 N   0  0  0  0  0  0  0  0  0  0  0  0
    4.1410    7.3470   -0.8870 C   0  0  0  0  0  0  0  0  0  0  0  0
    5.3050    7.7430   -0.3820 N   0  0  0  0  0  0  0  0  0  0  0  0
    3.4300    8.4510   -2.0590 B   0  0  0  0  0  0  0  0  0  0  0  0
    5.7060    8.9530   -0.9030 C   0  0  0  0  0  0  0  0  0  0  0  0
    4.8160    9.4700   -1.8110 C   0  0  0  0  0  0  0  0  0  0  0  0
    5.0570   10.7080   -2.5010 C   0  0  0  0  0  0  0  0  0  0  0  0
    3.8230   11.9090   -2.9370 C   0  0  0  0  0  0  0  0  0  0  0  0
    6.2890   11.1490   -2.9150 C   0  0  0  0  0  0  0  0  0  0  0  0
    5.0290   12.9830   -3.6790 C   0  0  0  0  0  0  0  0  0  0  0  0
    7.8440   10.3700   -2.8510 S   0  0  0  0  0  0  0  0  0  0  0  0
    6.2450   12.3730   -3.5590 C   0  0  0  0  0  0  0  0  0  0  0  0
    8.4930   11.8080   -3.7010 C   0  0  0  0  0  0  0  0  0  0  0  0
    7.5320   12.7640   -4.0090 C   0  0  0  0  0  0  0  0  0  0  0  0
   -1.1620   -0.6650    0.6280 H   0  0  0  0  0  0  0  0  0  0  0  0
    1.2670   -0.7870    1.1610 H   0  0  0  0  0  0  0  0  0  0  0  0
   -2.1410    1.4670   -0.2050 H   0  0  0  0  0  0  0  0  0  0  0  0
    2.7070    1.1820    0.8540 H   0  0  0  0  0  0  0  0  0  0  0  0
   -0.7230    3.4610   -0.4820 H   0  0  0  0  0  0  0  0  0  0  0  0
    0.7800    4.5280   -1.6710 H   0  0  0  0  0  0  0  0  0  0  0  0
    6.6340    9.3920   -0.5610 H   0  0  0  0  0  0  0  0  0  0  0  0
    4.7580   13.9230   -4.1390 H   0  0  0  0  0  0  0  0  0  0  0  0
    9.5510   11.8390   -3.9250 H   0  0  0  0  0  0  0  0  0  0  0  0
    7.7280   13.6910   -4.5360 H   0  0  0  0  0  0  0  0  0  0  0  0
  1 29  1  0  0  0  0
  1  2  2  0  0  0  0
  2 30  1  0  0  0  0
  3  1  1  0  0  0  0
  4  2  1  0  0  0  0
  4 32  1  0  0  0  0
  5  3  2  0  0  0  0
  5  6  1  0  0  0  0
  6  4  2  0  0  0  0
  7  6  1  0  0  0  0
  7  9  1  0  0  0  0
  8  7  2  0  0  0  0
  9 11  2  0  0  0  0
 10  8  1  0  0  0  0
 10 13  2  0  0  0  0
 11 14  1  0  0  0  0
 12  9  1  0  0  0  0
 12 15  2  0  0  0  0
 13 12  1  0  0  0  0
 15 14  1  0  0  0  0
 16 13  1  0  0  0  0
 16 17  2  0  0  0  0
 18 20  2  0  0  0  0
 18 16  1  0  0  0  0
 19 35  1  0  0  0  0
 19 17  1  0  0  0  0
 20 19  1  0  0  0  0
 21 20  1  0  0  0  0
 22 21  2  0  0  0  0
 23 25  2  0  0  0  0
 23 21  1  0  0  0  0
 24 26  2  0  0  0  0
 24 22  1  0  0  0  0
 26 23  1  0  0  0  0
 27 25  1  0  0  0  0
 28 27  2  0  0  0  0
 28 26  1  0  0  0  0
 31  3  1  0  0  0  0
 33  5  1  0  0  0  0
 34  8  1  0  0  0  0
 36 24  1  0  0  0  0
 37 27  1  0  0  0  0
 38 28  1  0  0  0  0
M  END
$$$$
scan_sander_basal/min_pdbs/min_pdb_C306_165.pdb
 OpenBabel09051719333D

 38 43  0  0  0  0  0  0  0  0999 V2000
   -0.5880    0.2130    0.4990 C   0  0  0  0  0  0  0  0  0  0  0  0
    0.7010    0.2130    1.0450 C   0  0  0  0  0  0  0  0  0  0  0  0
   -1.0370    1.3370   -0.2030 C   0  0  0  0  0  0  0  0  0  0  0  0
    1.5330    1.3340    0.8920 C   0  0  0  0  0  0  0  0  0  0  0  0
   -0.2010    2.4540   -0.3550 C   0  0  0  0  0  0  0  0  0  0  0  0
    1.1140    2.5000    0.1910 C   0  0  0  0  0  0  0  0  0  0  0  0
    1.9880    3.7300    0.0020 C   0  0  0  0  0  0  0  0  0  0  0  0
    1.6380    4.7150   -0.9620 C   0  0  0  0  0  0  0  0  0  0  0  0
    3.1770    4.0320    0.7310 C   0  0  0  0  0  0  0  0  0  0  0  0
    2.3460    5.8310   -1.2180 N   0  0  0  0  0  0  0  0  0  0  0  0
    3.6770    3.2930    1.7430 N   0  0  0  0  0  0  0  0  0  0  0  0
    3.9090    5.1910    0.4750 C   0  0  0  0  0  0  0  0  0  0  0  0
    3.4770    6.0900   -0.5280 C   0  0  0  0  0  0  0  0  0  0  0  0
    5.0170    4.0700    2.2610 S   0  0  0  0  0  0  0  0  0  0  0  0
    4.9970    5.3570    1.2600 N   0  0  0  0  0  0  0  0  0  0  0  0
    4.1750    7.3440   -0.8820 C   0  0  0  0  0  0  0  0  0  0  0  0
    5.3620    7.7180   -0.4180 N   0  0  0  0  0  0  0  0  0  0  0  0
    3.4290    8.4760   -2.0050 B   0  0  0  0  0  0  0  0  0  0  0  0
    5.7550    8.9340   -0.9310 C   0  0  0  0  0  0  0  0  0  0  0  0
    4.8350    9.4770   -1.7930 C   0  0  0  0  0  0  0  0  0  0  0  0
    5.0600   10.7250   -2.4690 C   0  0  0  0  0  0  0  0  0  0  0  0
    3.8220   11.9470   -2.8310 C   0  0  0  0  0  0  0  0  0  0  0  0
    6.2790   11.1630   -2.9240 C   0  0  0  0  0  0  0  0  0  0  0  0
    5.0090   13.0240   -3.6000 C   0  0  0  0  0  0  0  0  0  0  0  0
    7.8280   10.3680   -2.9370 S   0  0  0  0  0  0  0  0  0  0  0  0
    6.2220   12.4000   -3.5410 C   0  0  0  0  0  0  0  0  0  0  0  0
    8.4560   11.8160   -3.7840 C   0  0  0  0  0  0  0  0  0  0  0  0
    7.4940   12.7880   -4.0350 C   0  0  0  0  0  0  0  0  0  0  0  0
   -1.2320   -0.6530    0.6180 H   0  0  0  0  0  0  0  0  0  0  0  0
    1.0620   -0.6600    1.5820 H   0  0  0  0  0  0  0  0  0  0  0  0
   -2.0380    1.3460   -0.6260 H   0  0  0  0  0  0  0  0  0  0  0  0
    2.5300    1.2530    1.3010 H   0  0  0  0  0  0  0  0  0  0  0  0
   -0.6140    3.3050   -0.8820 H   0  0  0  0  0  0  0  0  0  0  0  0
    0.7690    4.5960   -1.6030 H   0  0  0  0  0  0  0  0  0  0  0  0
    6.7010    9.3570   -0.6190 H   0  0  0  0  0  0  0  0  0  0  0  0
    4.7290   13.9750   -4.0310 H   0  0  0  0  0  0  0  0  0  0  0  0
    9.5050   11.8420   -4.0500 H   0  0  0  0  0  0  0  0  0  0  0  0
    7.6780   13.7230   -4.5520 H   0  0  0  0  0  0  0  0  0  0  0  0
  1 29  1  0  0  0  0
  1  2  2  0  0  0  0
  2 30  1  0  0  0  0
  3  1  1  0  0  0  0
  4  2  1  0  0  0  0
  4 32  1  0  0  0  0
  5  3  2  0  0  0  0
  5  6  1  0  0  0  0
  6  4  2  0  0  0  0
  7  6  1  0  0  0  0
  7  9  1  0  0  0  0
  8  7  2  0  0  0  0
  9 11  2  0  0  0  0
 10  8  1  0  0  0  0
 10 13  2  0  0  0  0
 11 14  1  0  0  0  0
 12  9  1  0  0  0  0
 12 15  2  0  0  0  0
 13 12  1  0  0  0  0
 15 14  1  0  0  0  0
 16 13  1  0  0  0  0
 16 17  2  0  0  0  0
 18 20  2  0  0  0  0
 18 16  1  0  0  0  0
 19 35  1  0  0  0  0
 19 17  1  0  0  0  0
 20 19  1  0  0  0  0
 21 20  1  0  0  0  0
 22 21  2  0  0  0  0
 23 21  1  0  0  0  0
 24 26  2  0  0  0  0
 24 22  1  0  0  0  0
 25 23  2  0  0  0  0
 26 23  1  0  0  0  0
 27 25  1  0  0  0  0
 28 27  2  0  0  0  0
 28 26  1  0  0  0  0
 31  3  1  0  0  0  0
 33  5  1  0  0  0  0
 34  8  1  0  0  0  0
 36 24  1  0  0  0  0
 37 27  1  0  0  0  0
 38 28  1  0  0  0  0
M  END
$$$$
scan_sander_basal/min_pdbs/min_pdb_C306_180.pdb
 OpenBabel09051719333D

 38 43  0  0  0  0  0  0  0  0999 V2000
   -0.6310    0.2250    0.5150 C   0  0  0  0  0  0  0  0  0  0  0  0
    0.5390    0.3290    1.2720 C   0  0  0  0  0  0  0  0  0  0  0  0
   -0.9480    1.2370   -0.3950 C   0  0  0  0  0  0  0  0  0  0  0  0
    1.3860    1.4390    1.1200 C   0  0  0  0  0  0  0  0  0  0  0  0
   -0.0990    2.3460   -0.5430 C   0  0  0  0  0  0  0  0  0  0  0  0
    1.1060    2.4990    0.2070 C   0  0  0  0  0  0  0  0  0  0  0  0
    1.9990    3.7230    0.0100 C   0  0  0  0  0  0  0  0  0  0  0  0
    1.6390    4.7330   -0.9260 C   0  0  0  0  0  0  0  0  0  0  0  0
    3.2260    3.9970    0.6940 C   0  0  0  0  0  0  0  0  0  0  0  0
    2.3480    5.8480   -1.1830 N   0  0  0  0  0  0  0  0  0  0  0  0
    3.7900    3.2140    1.6350 N   0  0  0  0  0  0  0  0  0  0  0  0
    3.9650    5.1520    0.4300 C   0  0  0  0  0  0  0  0  0  0  0  0
    3.5070    6.0790   -0.5330 C   0  0  0  0  0  0  0  0  0  0  0  0
    5.1630    3.9600    2.1080 S   0  0  0  0  0  0  0  0  0  0  0  0
    5.0970    5.2820    1.1580 N   0  0  0  0  0  0  0  0  0  0  0  0
    4.2030    7.3340   -0.8850 C   0  0  0  0  0  0  0  0  0  0  0  0
    5.4120    7.6870   -0.4600 N   0  0  0  0  0  0  0  0  0  0  0  0
    3.4260    8.4990   -1.9520 B   0  0  0  0  0  0  0  0  0  0  0  0
    5.7970    8.9100   -0.9610 C   0  0  0  0  0  0  0  0  0  0  0  0
    4.8490    9.4810   -1.7740 C   0  0  0  0  0  0  0  0  0  0  0  0
    5.0610   10.7430   -2.4300 C   0  0  0  0  0  0  0  0  0  0  0  0
    3.8230   11.9840   -2.7170 C   0  0  0  0  0  0  0  0  0  0  0  0
    6.2660   11.1790   -2.9230 C   0  0  0  0  0  0  0  0  0  0  0  0
    4.9890   13.0660   -3.5080 C   0  0  0  0  0  0  0  0  0  0  0  0
    7.8040   10.3690   -3.0140 S   0  0  0  0  0  0  0  0  0  0  0  0
    6.1970   12.4300   -3.5100 C   0  0  0  0  0  0  0  0  0  0  0  0
    8.4140   11.8300   -3.8540 C   0  0  0  0  0  0  0  0  0  0  0  0
    7.4530   12.8160   -4.0460 C   0  0  0  0  0  0  0  0  0  0  0  0
   -1.2860   -0.6340    0.6310 H   0  0  0  0  0  0  0  0  0  0  0  0
    0.7960   -0.4530    1.9810 H   0  0  0  0  0  0  0  0  0  0  0  0
   -1.8550    1.1650   -0.9890 H   0  0  0  0  0  0  0  0  0  0  0  0
    2.2660    1.4410    1.7410 H   0  0  0  0  0  0  0  0  0  0  0  0
   -0.4110    3.0860   -1.2660 H   0  0  0  0  0  0  0  0  0  0  0  0
    0.7330    4.6690   -1.5190 H   0  0  0  0  0  0  0  0  0  0  0  0
    6.7580    9.3180   -0.6770 H   0  0  0  0  0  0  0  0  0  0  0  0
    4.7030   14.0290   -3.9070 H   0  0  0  0  0  0  0  0  0  0  0  0
    9.4520   11.8520   -4.1610 H   0  0  0  0  0  0  0  0  0  0  0  0
    7.6260   13.7600   -4.5490 H   0  0  0  0  0  0  0  0  0  0  0  0
  1 29  1  0  0  0  0
  1  2  2  0  0  0  0
  2 30  1  0  0  0  0
  3  1  1  0  0  0  0
  4  2  1  0  0  0  0
  4 32  1  0  0  0  0
  5  3  2  0  0  0  0
  5  6  1  0  0  0  0
  6  4  2  0  0  0  0
  7  6  1  0  0  0  0
  7  9  1  0  0  0  0
  8  7  2  0  0  0  0
  9 11  2  0  0  0  0
 10  8  1  0  0  0  0
 10 13  2  0  0  0  0
 11 14  1  0  0  0  0
 12  9  1  0  0  0  0
 12 15  2  0  0  0  0
 13 12  1  0  0  0  0
 15 14  1  0  0  0  0
 16 13  1  0  0  0  0
 16 17  2  0  0  0  0
 18 20  2  0  0  0  0
 18 16  1  0  0  0  0
 19 35  1  0  0  0  0
 19 17  1  0  0  0  0
 20 19  1  0  0  0  0
 21 20  1  0  0  0  0
 22 21  2  0  0  0  0
 23 21  1  0  0  0  0
 24 22  1  0  0  0  0
 25 23  2  0  0  0  0
 26 24  2  0  0  0  0
 26 23  1  0  0  0  0
 27 25  1  0  0  0  0
 28 27  2  0  0  0  0
 28 26  1  0  0  0  0
 31  3  1  0  0  0  0
 33  5  1  0  0  0  0
 34  8  1  0  0  0  0
 36 24  1  0  0  0  0
 37 27  1  0  0  0  0
 38 28  1  0  0  0  0
M  END
$$$$
scan_sander_basal/min_pdbs/min_pdb_C306_195.pdb
 OpenBabel09051719333D

 38 43  0  0  0  0  0  0  0  0999 V2000
   -0.6370    0.2570    0.5480 C   0  0  0  0  0  0  0  0  0  0  0  0
    0.3880    0.5020    1.4680 C   0  0  0  0  0  0  0  0  0  0  0  0
   -0.8110    1.1260   -0.5350 C   0  0  0  0  0  0  0  0  0  0  0  0
    1.2380    1.6080    1.3030 C   0  0  0  0  0  0  0  0  0  0  0  0
    0.0390    2.2330   -0.6950 C   0  0  0  0  0  0  0  0  0  0  0  0
    1.1000    2.5150    0.2140 C   0  0  0  0  0  0  0  0  0  0  0  0
    1.9980    3.7230    0.0020 C   0  0  0  0  0  0  0  0  0  0  0  0
    1.6140    4.7480   -0.9060 C   0  0  0  0  0  0  0  0  0  0  0  0
    3.2540    3.9550    0.6370 C   0  0  0  0  0  0  0  0  0  0  0  0
    2.3280    5.8610   -1.1610 N   0  0  0  0  0  0  0  0  0  0  0  0
    3.8600    3.1080    1.4960 N   0  0  0  0  0  0  0  0  0  0  0  0
    4.0010    5.1020    0.3690 C   0  0  0  0  0  0  0  0  0  0  0  0
    3.5160    6.0600   -0.5510 C   0  0  0  0  0  0  0  0  0  0  0  0
    5.2680    3.8160    1.9240 S   0  0  0  0  0  0  0  0  0  0  0  0
    5.1730    5.1810    1.0380 N   0  0  0  0  0  0  0  0  0  0  0  0
    4.2150    7.3150   -0.8980 C   0  0  0  0  0  0  0  0  0  0  0  0
    5.4440    7.6400   -0.5110 N   0  0  0  0  0  0  0  0  0  0  0  0
    3.4130    8.5180   -1.9010 B   0  0  0  0  0  0  0  0  0  0  0  0
    5.8270    8.8710   -0.9950 C   0  0  0  0  0  0  0  0  0  0  0  0
    4.8560    9.4760   -1.7540 C   0  0  0  0  0  0  0  0  0  0  0  0
    5.0600   10.7510   -2.3850 C   0  0  0  0  0  0  0  0  0  0  0  0
    3.8290   12.0160   -2.5900 C   0  0  0  0  0  0  0  0  0  0  0  0
    6.2500   11.1850   -2.9140 C   0  0  0  0  0  0  0  0  0  0  0  0
    4.9790   13.1040   -3.3990 C   0  0  0  0  0  0  0  0  0  0  0  0
    7.7720   10.3570   -3.0880 S   0  0  0  0  0  0  0  0  0  0  0  0
    6.1770   12.4510   -3.4650 C   0  0  0  0  0  0  0  0  0  0  0  0
    8.3690   11.8310   -3.9130 C   0  0  0  0  0  0  0  0  0  0  0  0
    7.4160   12.8350   -4.0410 C   0  0  0  0  0  0  0  0  0  0  0  0
   -1.2940   -0.5990    0.6750 H   0  0  0  0  0  0  0  0  0  0  0  0
    0.5230   -0.1620    2.3180 H   0  0  0  0  0  0  0  0  0  0  0  0
   -1.6010    0.9400   -1.2560 H   0  0  0  0  0  0  0  0  0  0  0  0
    1.9820    1.7620    2.0700 H   0  0  0  0  0  0  0  0  0  0  0  0
   -0.1240    2.8510   -1.5680 H   0  0  0  0  0  0  0  0  0  0  0  0
    0.6650    4.7110   -1.4320 H   0  0  0  0  0  0  0  0  0  0  0  0
    6.8040    9.2580   -0.7390 H   0  0  0  0  0  0  0  0  0  0  0  0
    4.6910   14.0800   -3.7600 H   0  0  0  0  0  0  0  0  0  0  0  0
    9.3940   11.8470   -4.2600 H   0  0  0  0  0  0  0  0  0  0  0  0
    7.5830   13.7900   -4.5250 H   0  0  0  0  0  0  0  0  0  0  0  0
  1 29  1  0  0  0  0
  1  2  2  0  0  0  0
  2 30  1  0  0  0  0
  3  1  1  0  0  0  0
  4  2  1  0  0  0  0
  4 32  1  0  0  0  0
  5  3  2  0  0  0  0
  5  6  1  0  0  0  0
  6  4  2  0  0  0  0
  7  6  1  0  0  0  0
  7  9  1  0  0  0  0
  8  7  2  0  0  0  0
  9 11  2  0  0  0  0
 10  8  1  0  0  0  0
 10 13  2  0  0  0  0
 11 14  1  0  0  0  0
 12  9  1  0  0  0  0
 12 15  2  0  0  0  0
 13 12  1  0  0  0  0
 15 14  1  0  0  0  0
 16 13  1  0  0  0  0
 16 17  2  0  0  0  0
 18 20  2  0  0  0  0
 18 16  1  0  0  0  0
 19 35  1  0  0  0  0
 19 17  1  0  0  0  0
 20 19  1  0  0  0  0
 21 20  1  0  0  0  0
 22 21  2  0  0  0  0
 23 21  1  0  0  0  0
 24 22  1  0  0  0  0
 25 23  2  0  0  0  0
 26 24  2  0  0  0  0
 26 23  1  0  0  0  0
 27 25  1  0  0  0  0
 28 27  2  0  0  0  0
 28 26  1  0  0  0  0
 31  3  1  0  0  0  0
 33  5  1  0  0  0  0
 34  8  1  0  0  0  0
 36 24  1  0  0  0  0
 37 27  1  0  0  0  0
 38 28  1  0  0  0  0
M  END
$$$$
scan_sander_basal/min_pdbs/min_pdb_C306_210.pdb
 OpenBabel09051719333D

 38 43  0  0  0  0  0  0  0  0999 V2000
   -0.6130    0.2850    0.5820 C   0  0  0  0  0  0  0  0  0  0  0  0
    0.2510    0.6900    1.6090 C   0  0  0  0  0  0  0  0  0  0  0  0
   -0.6350    0.9940   -0.6270 C   0  0  0  0  0  0  0  0  0  0  0  0
    1.0920    1.7990    1.4250 C   0  0  0  0  0  0  0  0  0  0  0  0
    0.2070    2.1030   -0.8070 C   0  0  0  0  0  0  0  0  0  0  0  0
    1.0990    2.5330    0.2100 C   0  0  0  0  0  0  0  0  0  0  0  0
    1.9850    3.7310   -0.0120 C   0  0  0  0  0  0  0  0  0  0  0  0
    1.5690    4.7740   -0.8770 C   0  0  0  0  0  0  0  0  0  0  0  0
    3.2650    3.9150    0.5740 C   0  0  0  0  0  0  0  0  0  0  0  0
    2.2900    5.8820   -1.1360 N   0  0  0  0  0  0  0  0  0  0  0  0
    3.8750    3.0240    1.3830 N   0  0  0  0  0  0  0  0  0  0  0  0
    4.0200    5.0530    0.3040 C   0  0  0  0  0  0  0  0  0  0  0  0
    3.5090    6.0440   -0.5690 C   0  0  0  0  0  0  0  0  0  0  0  0
    5.3160    3.6920    1.7690 S   0  0  0  0  0  0  0  0  0  0  0  0
    5.2190    5.0870    0.9270 N   0  0  0  0  0  0  0  0  0  0  0  0
    4.2150    7.2960   -0.9110 C   0  0  0  0  0  0  0  0  0  0  0  0
    5.4650    7.5890   -0.5670 N   0  0  0  0  0  0  0  0  0  0  0  0
    3.3930    8.5410   -1.8450 B   0  0  0  0  0  0  0  0  0  0  0  0
    5.8490    8.8260   -1.0320 C   0  0  0  0  0  0  0  0  0  0  0  0
    4.8590    9.4700   -1.7330 C   0  0  0  0  0  0  0  0  0  0  0  0
    5.0590   10.7590   -2.3370 C   0  0  0  0  0  0  0  0  0  0  0  0
    3.8450   12.0500   -2.4540 C   0  0  0  0  0  0  0  0  0  0  0  0
    6.2350   11.1860   -2.9030 C   0  0  0  0  0  0  0  0  0  0  0  0
    4.9800   13.1400   -3.2800 C   0  0  0  0  0  0  0  0  0  0  0  0
    7.7320   10.3380   -3.1630 S   0  0  0  0  0  0  0  0  0  0  0  0
    6.1610   12.4690   -3.4150 C   0  0  0  0  0  0  0  0  0  0  0  0
    8.3220   11.8250   -3.9710 C   0  0  0  0  0  0  0  0  0  0  0  0
    7.3820   12.8480   -4.0310 C   0  0  0  0  0  0  0  0  0  0  0  0
   -1.2640   -0.5730    0.7230 H   0  0  0  0  0  0  0  0  0  0  0  0
    0.2640    0.1490    2.5510 H   0  0  0  0  0  0  0  0  0  0  0  0
   -1.3010    0.6810   -1.4270 H   0  0  0  0  0  0  0  0  0  0  0  0
    1.7240    2.1040    2.2520 H   0  0  0  0  0  0  0  0  0  0  0  0
    0.1820    2.6180   -1.7620 H   0  0  0  0  0  0  0  0  0  0  0  0
    0.5950    4.7360   -1.3630 H   0  0  0  0  0  0  0  0  0  0  0  0
    6.8430    9.1890   -0.8070 H   0  0  0  0  0  0  0  0  0  0  0  0
    4.6950   14.1310   -3.6020 H   0  0  0  0  0  0  0  0  0  0  0  0
    9.3320   11.8330   -4.3610 H   0  0  0  0  0  0  0  0  0  0  0  0
    7.5460   13.8130   -4.4960 H   0  0  0  0  0  0  0  0  0  0  0  0
  1 29  1  0  0  0  0
  1  2  2  0  0  0  0
  2 30  1  0  0  0  0
  3  1  1  0  0  0  0
  4  2  1  0  0  0  0
  4 32  1  0  0  0  0
  5  3  2  0  0  0  0
  5  6  1  0  0  0  0
  6  4  2  0  0  0  0
  7  6  1  0  0  0  0
  7  9  1  0  0  0  0
  8  7  2  0  0  0  0
  9 11  2  0  0  0  0
 10  8  1  0  0  0  0
 10 13  2  0  0  0  0
 11 14  1  0  0  0  0
 12  9  1  0  0  0  0
 12 15  2  0  0  0  0
 13 12  1  0  0  0  0
 15 14  1  0  0  0  0
 16 13  1  0  0  0  0
 16 17  2  0  0  0  0
 18 20  2  0  0  0  0
 18 16  1  0  0  0  0
 19 35  1  0  0  0  0
 19 17  1  0  0  0  0
 20 19  1  0  0  0  0
 21 20  1  0  0  0  0
 22 21  2  0  0  0  0
 23 21  1  0  0  0  0
 24 22  1  0  0  0  0
 25 23  2  0  0  0  0
 26 24  2  0  0  0  0
 26 23  1  0  0  0  0
 27 25  1  0  0  0  0
 28 27  2  0  0  0  0
 28 26  1  0  0  0  0
 31  3  1  0  0  0  0
 33  5  1  0  0  0  0
 34  8  1  0  0  0  0
 36 24  1  0  0  0  0
 37 27  1  0  0  0  0
 38 28  1  0  0  0  0
M  END
$$$$
scan_sander_basal/min_pdbs/min_pdb_C306_225.pdb
 OpenBabel09051719333D

 38 43  0  0  0  0  0  0  0  0999 V2000
   -0.5840    0.2990    0.6190 C   0  0  0  0  0  0  0  0  0  0  0  0
    0.1000    0.8740    1.7000 C   0  0  0  0  0  0  0  0  0  0  0  0
   -0.4390    0.8380   -0.6680 C   0  0  0  0  0  0  0  0  0  0  0  0
    0.9310    1.9870    1.4930 C   0  0  0  0  0  0  0  0  0  0  0  0
    0.3920    1.9520   -0.8720 C   0  0  0  0  0  0  0  0  0  0  0  0
    1.0970    2.5460    0.2020 C   0  0  0  0  0  0  0  0  0  0  0  0
    1.9680    3.7390   -0.0310 C   0  0  0  0  0  0  0  0  0  0  0  0
    1.5230    4.8060   -0.8450 C   0  0  0  0  0  0  0  0  0  0  0  0
    3.2700    3.8810    0.5060 C   0  0  0  0  0  0  0  0  0  0  0  0
    2.2530    5.9090   -1.1060 N   0  0  0  0  0  0  0  0  0  0  0  0
    3.8740    2.9590    1.2830 N   0  0  0  0  0  0  0  0  0  0  0  0
    4.0310    5.0130    0.2380 C   0  0  0  0  0  0  0  0  0  0  0  0
    3.4990    6.0350   -0.5880 C   0  0  0  0  0  0  0  0  0  0  0  0
    5.3420    3.5900    1.6300 S   0  0  0  0  0  0  0  0  0  0  0  0
    5.2510    5.0070    0.8210 N   0  0  0  0  0  0  0  0  0  0  0  0
    4.2130    7.2830   -0.9250 C   0  0  0  0  0  0  0  0  0  0  0  0
    5.4820    7.5430   -0.6270 N   0  0  0  0  0  0  0  0  0  0  0  0
    3.3770    8.5680   -1.7900 B   0  0  0  0  0  0  0  0  0  0  0  0
    5.8690    8.7860   -1.0740 C   0  0  0  0  0  0  0  0  0  0  0  0
    4.8630    9.4660   -1.7140 C   0  0  0  0  0  0  0  0  0  0  0  0
    5.0630   10.7690   -2.2890 C   0  0  0  0  0  0  0  0  0  0  0  0
    3.8690   12.0830   -2.3190 C   0  0  0  0  0  0  0  0  0  0  0  0
    6.2210   11.1910   -2.8920 C   0  0  0  0  0  0  0  0  0  0  0  0
    4.9880   13.1770   -3.1620 C   0  0  0  0  0  0  0  0  0  0  0  0
    7.6910   10.3250   -3.2400 S   0  0  0  0  0  0  0  0  0  0  0  0
    6.1510   12.4900   -3.3650 C   0  0  0  0  0  0  0  0  0  0  0  0
    8.2740   11.8240   -4.0300 C   0  0  0  0  0  0  0  0  0  0  0  0
    7.3510   12.8640   -4.0210 C   0  0  0  0  0  0  0  0  0  0  0  0
   -1.2260   -0.5630    0.7780 H   0  0  0  0  0  0  0  0  0  0  0  0
   -0.0130    0.4590    2.6980 H   0  0  0  0  0  0  0  0  0  0  0  0
   -0.9670    0.3930   -1.5070 H   0  0  0  0  0  0  0  0  0  0  0  0
    1.4480    2.4280    2.3400 H   0  0  0  0  0  0  0  0  0  0  0  0
    0.5020    2.3540   -1.8750 H   0  0  0  0  0  0  0  0  0  0  0  0
    0.5310    4.7780   -1.2950 H   0  0  0  0  0  0  0  0  0  0  0  0
    6.8790    9.1250   -0.8810 H   0  0  0  0  0  0  0  0  0  0  0  0
    4.7090   14.1820   -3.4430 H   0  0  0  0  0  0  0  0  0  0  0  0
    9.2660   11.8250   -4.4610 H   0  0  0  0  0  0  0  0  0  0  0  0
    7.5140   13.8400   -4.4650 H   0  0  0  0  0  0  0  0  0  0  0  0
  1 29  1  0  0  0  0
  1  2  2  0  0  0  0
  2 30  1  0  0  0  0
  3  1  1  0  0  0  0
  4  2  1  0  0  0  0
  4 32  1  0  0  0  0
  5  3  2  0  0  0  0
  5  6  1  0  0  0  0
  6  4  2  0  0  0  0
  7  6  1  0  0  0  0
  7  9  1  0  0  0  0
  8  7  2  0  0  0  0
  9 11  2  0  0  0  0
 10  8  1  0  0  0  0
 10 13  2  0  0  0  0
 11 14  1  0  0  0  0
 12  9  1  0  0  0  0
 12 15  2  0  0  0  0
 13 12  1  0  0  0  0
 15 14  1  0  0  0  0
 16 17  2  0  0  0  0
 16 13  1  0  0  0  0
 18 20  2  0  0  0  0
 18 16  1  0  0  0  0
 19 35  1  0  0  0  0
 19 17  1  0  0  0  0
 20 19  1  0  0  0  0
 21 20  1  0  0  0  0
 22 21  2  0  0  0  0
 23 21  1  0  0  0  0
 24 22  1  0  0  0  0
 25 23  2  0  0  0  0
 26 24  2  0  0  0  0
 26 23  1  0  0  0  0
 27 28  2  0  0  0  0
 27 25  1  0  0  0  0
 28 26  1  0  0  0  0
 31  3  1  0  0  0  0
 33  5  1  0  0  0  0
 34  8  1  0  0  0  0
 36 24  1  0  0  0  0
 37 27  1  0  0  0  0
 38 28  1  0  0  0  0
M  END
$$$$
scan_sander_basal/min_pdbs/min_pdb_C306_240.pdb
 OpenBabel09051719333D

 38 43  0  0  0  0  0  0  0  0999 V2000
    0.0340   -0.0690    0.6020 C   0  0  0  0  0  0  0  0  0  0  0  0
   -0.7180    1.1050    0.7630 C   0  0  0  0  0  0  0  0  0  0  0  0
    1.3820    0.0070    0.2190 C   0  0  0  0  0  0  0  0  0  0  0  0
   -0.1200    2.3560    0.5410 C   0  0  0  0  0  0  0  0  0  0  0  0
    1.9780    1.2600   -0.0020 C   0  0  0  0  0  0  0  0  0  0  0  0
    1.2370    2.4540    0.1560 C   0  0  0  0  0  0  0  0  0  0  0  0
    1.8730    3.7790   -0.0900 C   0  0  0  0  0  0  0  0  0  0  0  0
    2.4240    4.0980   -1.3500 C   0  0  0  0  0  0  0  0  0  0  0  0
    1.9770    4.7790    0.9020 C   0  0  0  0  0  0  0  0  0  0  0  0
    3.0180    5.2760   -1.6310 N   0  0  0  0  0  0  0  0  0  0  0  0
    1.5110    4.6440    2.1590 N   0  0  0  0  0  0  0  0  0  0  0  0
    2.5880    5.9950    0.6230 C   0  0  0  0  0  0  0  0  0  0  0  0
    3.1170    6.2300   -0.6720 C   0  0  0  0  0  0  0  0  0  0  0  0
    1.8720    6.0590    2.8950 S   0  0  0  0  0  0  0  0  0  0  0  0
    2.6060    6.8520    1.6670 N   0  0  0  0  0  0  0  0  0  0  0  0
    3.7760    7.4870   -1.0810 C   0  0  0  0  0  0  0  0  0  0  0  0
    4.0860    8.4880   -0.2640 N   0  0  0  0  0  0  0  0  0  0  0  0
    4.2120    7.7430   -2.7660 B   0  0  0  0  0  0  0  0  0  0  0  0
    4.6940    9.5270   -0.9330 C   0  0  0  0  0  0  0  0  0  0  0  0
    4.8340    9.2920   -2.2780 C   0  0  0  0  0  0  0  0  0  0  0  0
    5.4740   10.2310   -3.1590 C   0  0  0  0  0  0  0  0  0  0  0  0
    5.0010   10.5660   -4.8380 C   0  0  0  0  0  0  0  0  0  0  0  0
    6.5430   11.0230   -2.8200 C   0  0  0  0  0  0  0  0  0  0  0  0
    6.2850   11.7800   -5.0320 C   0  0  0  0  0  0  0  0  0  0  0  0
    7.4870   11.0740   -1.3580 S   0  0  0  0  0  0  0  0  0  0  0  0
    6.9690   11.8400   -3.8520 C   0  0  0  0  0  0  0  0  0  0  0  0
    8.4950   12.3140   -2.1670 C   0  0  0  0  0  0  0  0  0  0  0  0
    8.1030   12.6020   -3.4700 C   0  0  0  0  0  0  0  0  0  0  0  0
   -0.4280   -1.0380    0.7740 H   0  0  0  0  0  0  0  0  0  0  0  0
   -1.7620    1.0470    1.0610 H   0  0  0  0  0  0  0  0  0  0  0  0
    1.9650   -0.9020    0.0960 H   0  0  0  0  0  0  0  0  0  0  0  0
   -0.7060    3.2620    0.6700 H   0  0  0  0  0  0  0  0  0  0  0  0
    3.0230    1.3120   -0.2940 H   0  0  0  0  0  0  0  0  0  0  0  0
    2.3820    3.3770   -2.1670 H   0  0  0  0  0  0  0  0  0  0  0  0
    4.9840   10.4110   -0.3820 H   0  0  0  0  0  0  0  0  0  0  0  0
    6.4390   12.3120   -5.9600 H   0  0  0  0  0  0  0  0  0  0  0  0
    9.3250   12.7410   -1.6190 H   0  0  0  0  0  0  0  0  0  0  0  0
    8.5990   13.3100   -4.1240 H   0  0  0  0  0  0  0  0  0  0  0  0
  1  2  1  0  0  0  0
  1 29  1  0  0  0  0
  2 30  1  0  0  0  0
  3  1  2  0  0  0  0
  4 32  1  0  0  0  0
  4  2  2  0  0  0  0
  5  6  2  0  0  0  0
  5  3  1  0  0  0  0
  6  4  1  0  0  0  0
  7  6  1  0  0  0  0
  7  9  1  0  0  0  0
  8  7  2  0  0  0  0
  9 11  2  0  0  0  0
 10  8  1  0  0  0  0
 10 13  2  0  0  0  0
 11 14  1  0  0  0  0
 12  9  1  0  0  0  0
 12 15  2  0  0  0  0
 13 12  1  0  0  0  0
 15 14  1  0  0  0  0
 16 13  1  0  0  0  0
 16 17  2  0  0  0  0
 18 20  2  0  0  0  0
 18 16  1  0  0  0  0
 19 35  1  0  0  0  0
 19 17  1  0  0  0  0
 20 19  1  0  0  0  0
 21 23  2  0  0  0  0
 21 20  1  0  0  0  0
 22 21  1  0  0  0  0
 23 25  1  0  0  0  0
 24 22  2  0  0  0  0
 24 26  1  0  0  0  0
 26 28  2  0  0  0  0
 26 23  1  0  0  0  0
 27 37  1  0  0  0  0
 27 25  2  0  0  0  0
 28 27  1  0  0  0  0
 31  3  1  0  0  0  0
 33  5  1  0  0  0  0
 34  8  1  0  0  0  0
 36 24  1  0  0  0  0
 38 28  1  0  0  0  0
M  END
$$$$
scan_sander_basal/min_pdbs/min_pdb_C306_255.pdb
 OpenBabel09051719333D

 38 43  0  0  0  0  0  0  0  0999 V2000
    0.0090   -0.0510    0.6060 C   0  0  0  0  0  0  0  0  0  0  0  0
   -0.7780    1.1090    0.5150 C   0  0  0  0  0  0  0  0  0  0  0  0
    1.4040    0.0330    0.4720 C   0  0  0  0  0  0  0  0  0  0  0  0
   -0.1670    2.3530    0.2890 C   0  0  0  0  0  0  0  0  0  0  0  0
    2.0120    1.2790    0.2470 C   0  0  0  0  0  0  0  0  0  0  0  0
    1.2360    2.4570    0.1520 C   0  0  0  0  0  0  0  0  0  0  0  0
    1.8830    3.7740   -0.0930 C   0  0  0  0  0  0  0  0  0  0  0  0
    2.3800    4.1170   -1.3690 C   0  0  0  0  0  0  0  0  0  0  0  0
    2.0430    4.7440    0.9180 C   0  0  0  0  0  0  0  0  0  0  0  0
    2.9780    5.2940   -1.6440 N   0  0  0  0  0  0  0  0  0  0  0  0
    1.6240    4.5800    2.1880 N   0  0  0  0  0  0  0  0  0  0  0  0
    2.6580    5.9590    0.6450 C   0  0  0  0  0  0  0  0  0  0  0  0
    3.1330    6.2210   -0.6660 C   0  0  0  0  0  0  0  0  0  0  0  0
    2.0340    5.9710    2.9450 S   0  0  0  0  0  0  0  0  0  0  0  0
    2.7290    6.7880    1.7100 N   0  0  0  0  0  0  0  0  0  0  0  0
    3.7910    7.4800   -1.0690 C   0  0  0  0  0  0  0  0  0  0  0  0
    4.1510    8.4540   -0.2410 N   0  0  0  0  0  0  0  0  0  0  0  0
    4.1580    7.7760   -2.7650 B   0  0  0  0  0  0  0  0  0  0  0  0
    4.7440    9.5020   -0.9080 C   0  0  0  0  0  0  0  0  0  0  0  0
    4.8220    9.3030   -2.2640 C   0  0  0  0  0  0  0  0  0  0  0  0
    5.4350   10.2580   -3.1460 C   0  0  0  0  0  0  0  0  0  0  0  0
    4.8940   10.6430   -4.7940 C   0  0  0  0  0  0  0  0  0  0  0  0
    6.5290   11.0260   -2.8340 C   0  0  0  0  0  0  0  0  0  0  0  0
    6.1850   11.8460   -5.0120 C   0  0  0  0  0  0  0  0  0  0  0  0
    7.5370   11.0260   -1.4150 S   0  0  0  0  0  0  0  0  0  0  0  0
    6.9200   11.8650   -3.8620 C   0  0  0  0  0  0  0  0  0  0  0  0
    8.5250   12.2760   -2.2340 C   0  0  0  0  0  0  0  0  0  0  0  0
    8.0800   12.6030   -3.5100 C   0  0  0  0  0  0  0  0  0  0  0  0
   -0.4630   -1.0140    0.7820 H   0  0  0  0  0  0  0  0  0  0  0  0
   -1.8570    1.0440    0.6210 H   0  0  0  0  0  0  0  0  0  0  0  0
    2.0120   -0.8640    0.5450 H   0  0  0  0  0  0  0  0  0  0  0  0
   -0.7780    3.2480    0.2240 H   0  0  0  0  0  0  0  0  0  0  0  0
    3.0920    1.3400    0.1480 H   0  0  0  0  0  0  0  0  0  0  0  0
    2.2920    3.4170   -2.2000 H   0  0  0  0  0  0  0  0  0  0  0  0
    5.0700   10.3680   -0.3470 H   0  0  0  0  0  0  0  0  0  0  0  0
    6.3050   12.4010   -5.9320 H   0  0  0  0  0  0  0  0  0  0  0  0
    9.3840   12.6770   -1.7120 H   0  0  0  0  0  0  0  0  0  0  0  0
    8.5560   13.3220   -4.1670 H   0  0  0  0  0  0  0  0  0  0  0  0
  1 29  1  0  0  0  0
  2  1  1  0  0  0  0
  2 30  1  0  0  0  0
  3 31  1  0  0  0  0
  3  1  2  0  0  0  0
  4  2  2  0  0  0  0
  5  3  1  0  0  0  0
  6  5  2  0  0  0  0
  6  4  1  0  0  0  0
  7  6  1  0  0  0  0
  7  9  1  0  0  0  0
  8  7  2  0  0  0  0
  9 11  2  0  0  0  0
 10  8  1  0  0  0  0
 10 13  2  0  0  0  0
 11 14  1  0  0  0  0
 12  9  1  0  0  0  0
 12 15  2  0  0  0  0
 13 12  1  0  0  0  0
 15 14  1  0  0  0  0
 16 13  1  0  0  0  0
 16 17  2  0  0  0  0
 18 20  2  0  0  0  0
 18 16  1  0  0  0  0
 19 35  1  0  0  0  0
 19 17  1  0  0  0  0
 20 19  1  0  0  0  0
 21 23  2  0  0  0  0
 21 20  1  0  0  0  0
 22 21  1  0  0  0  0
 23 25  1  0  0  0  0
 24 22  2  0  0  0  0
 24 26  1  0  0  0  0
 26 28  2  0  0  0  0
 26 23  1  0  0  0  0
 27 37  1  0  0  0  0
 27 25  2  0  0  0  0
 28 27  1  0  0  0  0
 32  4  1  0  0  0  0
 33  5  1  0  0  0  0
 34  8  1  0  0  0  0
 36 24  1  0  0  0  0
 38 28  1  0  0  0  0
M  END
$$$$
scan_sander_basal/min_pdbs/min_pdb_C306_270.pdb
 OpenBabel09051719333D

 38 43  0  0  0  0  0  0  0  0999 V2000
   -0.0170   -0.0380    0.5940 C   0  0  0  0  0  0  0  0  0  0  0  0
   -0.7940    1.0830    0.2620 C   0  0  0  0  0  0  0  0  0  0  0  0
    1.3770    0.0800    0.7060 C   0  0  0  0  0  0  0  0  0  0  0  0
   -0.1730    2.3240    0.0400 C   0  0  0  0  0  0  0  0  0  0  0  0
    1.9950    1.3220    0.4840 C   0  0  0  0  0  0  0  0  0  0  0  0
    1.2290    2.4610    0.1470 C   0  0  0  0  0  0  0  0  0  0  0  0
    1.8850    3.7730   -0.0930 C   0  0  0  0  0  0  0  0  0  0  0  0
    2.3240    4.1470   -1.3810 C   0  0  0  0  0  0  0  0  0  0  0  0
    2.1100    4.7100    0.9370 C   0  0  0  0  0  0  0  0  0  0  0  0
    2.9270    5.3230   -1.6510 N   0  0  0  0  0  0  0  0  0  0  0  0
    1.7500    4.5140    2.2200 N   0  0  0  0  0  0  0  0  0  0  0  0
    2.7300    5.9230    0.6690 C   0  0  0  0  0  0  0  0  0  0  0  0
    3.1450    6.2170   -0.6550 C   0  0  0  0  0  0  0  0  0  0  0  0
    2.2180    5.8760    2.9960 S   0  0  0  0  0  0  0  0  0  0  0  0
    2.8670    6.7190    1.7540 N   0  0  0  0  0  0  0  0  0  0  0  0
    3.8040    7.4770   -1.0530 C   0  0  0  0  0  0  0  0  0  0  0  0
    4.2200    8.4210   -0.2150 N   0  0  0  0  0  0  0  0  0  0  0  0
    4.0920    7.8190   -2.7560 B   0  0  0  0  0  0  0  0  0  0  0  0
    4.7990    9.4790   -0.8800 C   0  0  0  0  0  0  0  0  0  0  0  0
    4.8080    9.3180   -2.2430 C   0  0  0  0  0  0  0  0  0  0  0  0
    5.3950   10.2890   -3.1260 C   0  0  0  0  0  0  0  0  0  0  0  0
    4.7830   10.7330   -4.7340 C   0  0  0  0  0  0  0  0  0  0  0  0
    6.5160   11.0290   -2.8460 C   0  0  0  0  0  0  0  0  0  0  0  0
    6.0840   11.9190   -4.9800 C   0  0  0  0  0  0  0  0  0  0  0  0
    7.5920   10.9680   -1.4780 S   0  0  0  0  0  0  0  0  0  0  0  0
    6.8740   11.8920   -3.8660 C   0  0  0  0  0  0  0  0  0  0  0  0
    8.5620   12.2250   -2.3070 C   0  0  0  0  0  0  0  0  0  0  0  0
    8.0630   12.5980   -3.5500 C   0  0  0  0  0  0  0  0  0  0  0  0
   -0.4960   -0.9980    0.7680 H   0  0  0  0  0  0  0  0  0  0  0  0
   -1.8730    0.9920    0.1780 H   0  0  0  0  0  0  0  0  0  0  0  0
    1.9770   -0.7880    0.9660 H   0  0  0  0  0  0  0  0  0  0  0  0
   -0.7770    3.1900   -0.2140 H   0  0  0  0  0  0  0  0  0  0  0  0
    3.0740    1.4100    0.5750 H   0  0  0  0  0  0  0  0  0  0  0  0
    2.1830    3.4730   -2.2270 H   0  0  0  0  0  0  0  0  0  0  0  0
    5.1670   10.3220   -0.3100 H   0  0  0  0  0  0  0  0  0  0  0  0
    6.1700   12.4990   -5.8870 H   0  0  0  0  0  0  0  0  0  0  0  0
    9.4530   12.5950   -1.8160 H   0  0  0  0  0  0  0  0  0  0  0  0
    8.5210   13.3280   -4.2080 H   0  0  0  0  0  0  0  0  0  0  0  0
  1  3  1  0  0  0  0
  1 29  1  0  0  0  0
  2  1  2  0  0  0  0
  3 31  1  0  0  0  0
  4  6  2  0  0  0  0
  4  2  1  0  0  0  0
  5 33  1  0  0  0  0
  5  3  2  0  0  0  0
  6  5  1  0  0  0  0
  7  6  1  0  0  0  0
  7  9  1  0  0  0  0
  8  7  2  0  0  0  0
  9 11  2  0  0  0  0
 10  8  1  0  0  0  0
 10 13  2  0  0  0  0
 11 14  1  0  0  0  0
 12  9  1  0  0  0  0
 12 15  2  0  0  0  0
 13 12  1  0  0  0  0
 15 14  1  0  0  0  0
 16 13  1  0  0  0  0
 16 17  2  0  0  0  0
 18 20  2  0  0  0  0
 18 16  1  0  0  0  0
 19 35  1  0  0  0  0
 19 17  1  0  0  0  0
 20 19  1  0  0  0  0
 21 23  2  0  0  0  0
 21 20  1  0  0  0  0
 22 21  1  0  0  0  0
 23 25  1  0  0  0  0
 24 22  2  0  0  0  0
 24 26  1  0  0  0  0
 26 28  2  0  0  0  0
 26 23  1  0  0  0  0
 27 37  1  0  0  0  0
 27 25  2  0  0  0  0
 28 27  1  0  0  0  0
 30  2  1  0  0  0  0
 32  4  1  0  0  0  0
 34  8  1  0  0  0  0
 36 24  1  0  0  0  0
 38 28  1  0  0  0  0
M  END
$$$$
scan_sander_basal/min_pdbs/min_pdb_C306_285.pdb
 OpenBabel09051719333D

 38 43  0  0  0  0  0  0  0  0999 V2000
   -0.0510   -0.0280    0.5690 C   0  0  0  0  0  0  0  0  0  0  0  0
   -0.7690    1.0390    0.0050 C   0  0  0  0  0  0  0  0  0  0  0  0
    1.2980    0.1410    0.9210 C   0  0  0  0  0  0  0  0  0  0  0  0
   -0.1360    2.2750   -0.2070 C   0  0  0  0  0  0  0  0  0  0  0  0
    1.9280    1.3770    0.7070 C   0  0  0  0  0  0  0  0  0  0  0  0
    1.2210    2.4620    0.1400 C   0  0  0  0  0  0  0  0  0  0  0  0
    1.8890    3.7710   -0.0900 C   0  0  0  0  0  0  0  0  0  0  0  0
    2.2730    4.1760   -1.3870 C   0  0  0  0  0  0  0  0  0  0  0  0
    2.1810    4.6720    0.9540 C   0  0  0  0  0  0  0  0  0  0  0  0
    2.8830    5.3500   -1.6510 N   0  0  0  0  0  0  0  0  0  0  0  0
    1.8800    4.4440    2.2480 N   0  0  0  0  0  0  0  0  0  0  0  0
    2.8090    5.8830    0.6930 C   0  0  0  0  0  0  0  0  0  0  0  0
    3.1650    6.2100   -0.6410 C   0  0  0  0  0  0  0  0  0  0  0  0
    2.4080    5.7740    3.0400 S   0  0  0  0  0  0  0  0  0  0  0  0
    3.0120    6.6430    1.7920 N   0  0  0  0  0  0  0  0  0  0  0  0
    3.8250    7.4710   -1.0340 C   0  0  0  0  0  0  0  0  0  0  0  0
    4.2980    8.3820   -0.1900 N   0  0  0  0  0  0  0  0  0  0  0  0
    4.0370    7.8600   -2.7370 B   0  0  0  0  0  0  0  0  0  0  0  0
    4.8610    9.4510   -0.8500 C   0  0  0  0  0  0  0  0  0  0  0  0
    4.8000    9.3320   -2.2160 C   0  0  0  0  0  0  0  0  0  0  0  0
    5.3580   10.3210   -3.0980 C   0  0  0  0  0  0  0  0  0  0  0  0
    4.6740   10.8230   -4.6590 C   0  0  0  0  0  0  0  0  0  0  0  0
    6.5040   11.0360   -2.8520 C   0  0  0  0  0  0  0  0  0  0  0  0
    5.9800   11.9980   -4.9340 C   0  0  0  0  0  0  0  0  0  0  0  0
    7.6440   10.9180   -1.5410 S   0  0  0  0  0  0  0  0  0  0  0  0
    6.8240   11.9250   -3.8620 C   0  0  0  0  0  0  0  0  0  0  0  0
    8.5920   12.1860   -2.3800 C   0  0  0  0  0  0  0  0  0  0  0  0
    8.0370   12.6040   -3.5850 C   0  0  0  0  0  0  0  0  0  0  0  0
   -0.5400   -0.9840    0.7350 H   0  0  0  0  0  0  0  0  0  0  0  0
   -1.8140    0.9090   -0.2650 H   0  0  0  0  0  0  0  0  0  0  0  0
    1.8530   -0.6840    1.3600 H   0  0  0  0  0  0  0  0  0  0  0  0
   -0.6970    3.0980   -0.6400 H   0  0  0  0  0  0  0  0  0  0  0  0
    2.9700    1.5060    0.9850 H   0  0  0  0  0  0  0  0  0  0  0  0
    2.0800    3.5310   -2.2440 H   0  0  0  0  0  0  0  0  0  0  0  0
    5.2700   10.2700   -0.2740 H   0  0  0  0  0  0  0  0  0  0  0  0
    6.0300   12.6040   -5.8260 H   0  0  0  0  0  0  0  0  0  0  0  0
    9.5110   12.5290   -1.9230 H   0  0  0  0  0  0  0  0  0  0  0  0
    8.4730   13.3480   -4.2420 H   0  0  0  0  0  0  0  0  0  0  0  0
  1 29  1  0  0  0  0
  1  3  2  0  0  0  0
  2  1  1  0  0  0  0
  3 31  1  0  0  0  0
  4  2  2  0  0  0  0
  4  6  1  0  0  0  0
  5  3  1  0  0  0  0
  5 33  1  0  0  0  0
  6  5  2  0  0  0  0
  7  6  1  0  0  0  0
  7  9  1  0  0  0  0
  8  7  2  0  0  0  0
  9 11  2  0  0  0  0
 10  8  1  0  0  0  0
 10 13  2  0  0  0  0
 11 14  1  0  0  0  0
 12  9  1  0  0  0  0
 12 15  2  0  0  0  0
 13 12  1  0  0  0  0
 15 14  1  0  0  0  0
 16 13  1  0  0  0  0
 16 17  2  0  0  0  0
 18 20  2  0  0  0  0
 18 16  1  0  0  0  0
 19 35  1  0  0  0  0
 19 17  1  0  0  0  0
 20 19  1  0  0  0  0
 21 23  2  0  0  0  0
 21 20  1  0  0  0  0
 22 21  1  0  0  0  0
 23 25  1  0  0  0  0
 24 22  2  0  0  0  0
 24 26  1  0  0  0  0
 26 28  2  0  0  0  0
 26 23  1  0  0  0  0
 27 37  1  0  0  0  0
 27 25  2  0  0  0  0
 28 27  1  0  0  0  0
 30  2  1  0  0  0  0
 32  4  1  0  0  0  0
 34  8  1  0  0  0  0
 36 24  1  0  0  0  0
 38 28  1  0  0  0  0
M  END
$$$$
scan_sander_basal/min_pdbs/min_pdb_C306_300.pdb
 OpenBabel09051719333D

 38 43  0  0  0  0  0  0  0  0999 V2000
   -0.0830   -0.0230    0.5330 C   0  0  0  0  0  0  0  0  0  0  0  0
   -0.7020    0.9760   -0.2350 C   0  0  0  0  0  0  0  0  0  0  0  0
    1.1770    0.2120    1.1050 C   0  0  0  0  0  0  0  0  0  0  0  0
   -0.0590    2.2090   -0.4300 C   0  0  0  0  0  0  0  0  0  0  0  0
    1.8180    1.4460    0.9070 C   0  0  0  0  0  0  0  0  0  0  0  0
    1.2110    2.4650    0.1370 C   0  0  0  0  0  0  0  0  0  0  0  0
    1.8890    3.7730   -0.0810 C   0  0  0  0  0  0  0  0  0  0  0  0
    2.2130    4.2150   -1.3820 C   0  0  0  0  0  0  0  0  0  0  0  0
    2.2520    4.6370    0.9750 C   0  0  0  0  0  0  0  0  0  0  0  0
    2.8300    5.3860   -1.6420 N   0  0  0  0  0  0  0  0  0  0  0  0
    2.0130    4.3780    2.2760 N   0  0  0  0  0  0  0  0  0  0  0  0
    2.8880    5.8450    0.7170 C   0  0  0  0  0  0  0  0  0  0  0  0
    3.1800    6.2080   -0.6220 C   0  0  0  0  0  0  0  0  0  0  0  0
    2.6040    5.6750    3.0780 S   0  0  0  0  0  0  0  0  0  0  0  0
    3.1610    6.5690    1.8260 N   0  0  0  0  0  0  0  0  0  0  0  0
    3.8430    7.4700   -1.0110 C   0  0  0  0  0  0  0  0  0  0  0  0
    4.3760    8.3450   -0.1650 N   0  0  0  0  0  0  0  0  0  0  0  0
    3.9730    7.9080   -2.7100 B   0  0  0  0  0  0  0  0  0  0  0  0
    4.9250    9.4240   -0.8220 C   0  0  0  0  0  0  0  0  0  0  0  0
    4.7910    9.3500   -2.1860 C   0  0  0  0  0  0  0  0  0  0  0  0
    5.3210   10.3550   -3.0650 C   0  0  0  0  0  0  0  0  0  0  0  0
    4.5680   10.9180   -4.5720 C   0  0  0  0  0  0  0  0  0  0  0  0
    6.4920   11.0410   -2.8570 C   0  0  0  0  0  0  0  0  0  0  0  0
    5.8800   12.0770   -4.8790 C   0  0  0  0  0  0  0  0  0  0  0  0
    7.6960   10.8620   -1.6130 S   0  0  0  0  0  0  0  0  0  0  0  0
    6.7760   11.9550   -3.8560 C   0  0  0  0  0  0  0  0  0  0  0  0
    8.6240   12.1390   -2.4620 C   0  0  0  0  0  0  0  0  0  0  0  0
    8.0160   12.6040   -3.6220 C   0  0  0  0  0  0  0  0  0  0  0  0
   -0.5800   -0.9760    0.6870 H   0  0  0  0  0  0  0  0  0  0  0  0
   -1.6790    0.7960   -0.6750 H   0  0  0  0  0  0  0  0  0  0  0  0
    1.6560   -0.5600    1.7020 H   0  0  0  0  0  0  0  0  0  0  0  0
   -0.5460    2.9790   -1.0220 H   0  0  0  0  0  0  0  0  0  0  0  0
    2.7920    1.6230    1.3550 H   0  0  0  0  0  0  0  0  0  0  0  0
    1.9660    3.6020   -2.2490 H   0  0  0  0  0  0  0  0  0  0  0  0
    5.3790   10.2180   -0.2430 H   0  0  0  0  0  0  0  0  0  0  0  0
    5.8960   12.7100   -5.7540 H   0  0  0  0  0  0  0  0  0  0  0  0
    9.5720   12.4500   -2.0430 H   0  0  0  0  0  0  0  0  0  0  0  0
    8.4320   13.3600   -4.2790 H   0  0  0  0  0  0  0  0  0  0  0  0
  1 29  1  0  0  0  0
  1  3  2  0  0  0  0
  2  1  1  0  0  0  0
  3 31  1  0  0  0  0
  4  2  2  0  0  0  0
  4  6  1  0  0  0  0
  5  3  1  0  0  0  0
  5 33  1  0  0  0  0
  6  5  2  0  0  0  0
  7  6  1  0  0  0  0
  7  9  1  0  0  0  0
  8  7  2  0  0  0  0
  9 11  2  0  0  0  0
 10  8  1  0  0  0  0
 10 13  2  0  0  0  0
 11 14  1  0  0  0  0
 12  9  1  0  0  0  0
 12 15  2  0  0  0  0
 13 12  1  0  0  0  0
 15 14  1  0  0  0  0
 16 13  1  0  0  0  0
 16 17  2  0  0  0  0
 18 20  2  0  0  0  0
 18 16  1  0  0  0  0
 19 35  1  0  0  0  0
 19 17  1  0  0  0  0
 20 19  1  0  0  0  0
 21 23  2  0  0  0  0
 21 20  1  0  0  0  0
 22 21  1  0  0  0  0
 23 25  1  0  0  0  0
 24 22  2  0  0  0  0
 24 26  1  0  0  0  0
 26 28  2  0  0  0  0
 26 23  1  0  0  0  0
 27 37  1  0  0  0  0
 27 25  2  0  0  0  0
 28 27  1  0  0  0  0
 30  2  1  0  0  0  0
 32  4  1  0  0  0  0
 34  8  1  0  0  0  0
 36 24  1  0  0  0  0
 38 28  1  0  0  0  0
M  END
$$$$
scan_sander_basal/min_pdbs/min_pdb_C306_315.pdb
 OpenBabel09051719333D

 38 43  0  0  0  0  0  0  0  0999 V2000
   -0.1120   -0.0260    0.4890 C   0  0  0  0  0  0  0  0  0  0  0  0
   -0.5890    0.8960   -0.4560 C   0  0  0  0  0  0  0  0  0  0  0  0
    1.0170    0.2840    1.2620 C   0  0  0  0  0  0  0  0  0  0  0  0
    0.0650    2.1270   -0.6260 C   0  0  0  0  0  0  0  0  0  0  0  0
    1.6680    1.5160    1.0890 C   0  0  0  0  0  0  0  0  0  0  0  0
    1.2050    2.4630    0.1440 C   0  0  0  0  0  0  0  0  0  0  0  0
    1.8920    3.7770   -0.0560 C   0  0  0  0  0  0  0  0  0  0  0  0
    2.1580    4.2570   -1.3580 C   0  0  0  0  0  0  0  0  0  0  0  0
    2.3230    4.6090    1.0040 C   0  0  0  0  0  0  0  0  0  0  0  0
    2.7820    5.4230   -1.6180 N   0  0  0  0  0  0  0  0  0  0  0  0
    2.1350    4.3330    2.3110 N   0  0  0  0  0  0  0  0  0  0  0  0
    2.9650    5.8150    0.7460 C   0  0  0  0  0  0  0  0  0  0  0  0
    3.1970    6.2110   -0.5960 C   0  0  0  0  0  0  0  0  0  0  0  0
    2.7850    5.6010    3.1130 S   0  0  0  0  0  0  0  0  0  0  0  0
    3.3000    6.5100    1.8550 N   0  0  0  0  0  0  0  0  0  0  0  0
    3.8620    7.4710   -0.9840 C   0  0  0  0  0  0  0  0  0  0  0  0
    4.4520    8.3150   -0.1440 N   0  0  0  0  0  0  0  0  0  0  0  0
    3.9140    7.9530   -2.6760 B   0  0  0  0  0  0  0  0  0  0  0  0
    4.9860    9.4020   -0.7990 C   0  0  0  0  0  0  0  0  0  0  0  0
    4.7830    9.3660   -2.1560 C   0  0  0  0  0  0  0  0  0  0  0  0
    5.2870   10.3870   -3.0340 C   0  0  0  0  0  0  0  0  0  0  0  0
    4.4690   11.0020   -4.4860 C   0  0  0  0  0  0  0  0  0  0  0  0
    6.4780   11.0480   -2.8680 C   0  0  0  0  0  0  0  0  0  0  0  0
    5.7840   12.1470   -4.8290 C   0  0  0  0  0  0  0  0  0  0  0  0
    7.7400   10.8160   -1.6910 S   0  0  0  0  0  0  0  0  0  0  0  0
    6.7280   11.9840   -3.8560 C   0  0  0  0  0  0  0  0  0  0  0  0
    8.6460   12.0990   -2.5520 C   0  0  0  0  0  0  0  0  0  0  0  0
    7.9900   12.6060   -3.6680 C   0  0  0  0  0  0  0  0  0  0  0  0
   -0.6170   -0.9790    0.6220 H   0  0  0  0  0  0  0  0  0  0  0  0
   -1.4640    0.6580   -1.0530 H   0  0  0  0  0  0  0  0  0  0  0  0
    1.3880   -0.4290    1.9930 H   0  0  0  0  0  0  0  0  0  0  0  0
   -0.3190    2.8350   -1.3550 H   0  0  0  0  0  0  0  0  0  0  0  0
    2.5460    1.7400    1.6890 H   0  0  0  0  0  0  0  0  0  0  0  0
    1.8650    3.6720   -2.2310 H   0  0  0  0  0  0  0  0  0  0  0  0
    5.4820   10.1730   -0.2240 H   0  0  0  0  0  0  0  0  0  0  0  0
    5.7680   12.8040   -5.6870 H   0  0  0  0  0  0  0  0  0  0  0  0
    9.6190   12.3840   -2.1730 H   0  0  0  0  0  0  0  0  0  0  0  0
    8.3850   13.3720   -4.3240 H   0  0  0  0  0  0  0  0  0  0  0  0
  1 29  1  0  0  0  0
  1  3  2  0  0  0  0
  2  1  1  0  0  0  0
  3 31  1  0  0  0  0
  4  2  2  0  0  0  0
  4  6  1  0  0  0  0
  5  3  1  0  0  0  0
  5 33  1  0  0  0  0
  6  5  2  0  0  0  0
  7  6  1  0  0  0  0
  7  9  1  0  0  0  0
  8  7  2  0  0  0  0
  9 11  2  0  0  0  0
 10  8  1  0  0  0  0
 10 13  2  0  0  0  0
 11 14  1  0  0  0  0
 12  9  1  0  0  0  0
 12 15  2  0  0  0  0
 13 12  1  0  0  0  0
 15 14  1  0  0  0  0
 16 13  1  0  0  0  0
 16 17  2  0  0  0  0
 18 20  2  0  0  0  0
 18 16  1  0  0  0  0
 19 35  1  0  0  0  0
 19 17  1  0  0  0  0
 20 19  1  0  0  0  0
 21 23  2  0  0  0  0
 21 20  1  0  0  0  0
 22 21  1  0  0  0  0
 23 25  1  0  0  0  0
 24 22  2  0  0  0  0
 24 26  1  0  0  0  0
 26 28  2  0  0  0  0
 26 23  1  0  0  0  0
 27 37  1  0  0  0  0
 27 25  2  0  0  0  0
 28 27  1  0  0  0  0
 30  2  1  0  0  0  0
 32  4  1  0  0  0  0
 34  8  1  0  0  0  0
 36 24  1  0  0  0  0
 38 28  1  0  0  0  0
M  END
$$$$
scan_sander_basal/min_pdbs/min_pdb_C306_330.pdb
 OpenBabel09051719333D

 38 43  0  0  0  0  0  0  0  0999 V2000
   -0.1470   -0.0390    0.4370 C   0  0  0  0  0  0  0  0  0  0  0  0
   -0.4450    0.8030   -0.6430 C   0  0  0  0  0  0  0  0  0  0  0  0
    0.8180    0.3500    1.3760 C   0  0  0  0  0  0  0  0  0  0  0  0
    0.2210    2.0320   -0.7800 C   0  0  0  0  0  0  0  0  0  0  0  0
    1.4800    1.5810    1.2360 C   0  0  0  0  0  0  0  0  0  0  0  0
    1.1970    2.4590    0.1570 C   0  0  0  0  0  0  0  0  0  0  0  0
    1.8940    3.7820   -0.0210 C   0  0  0  0  0  0  0  0  0  0  0  0
    2.1020    4.3070   -1.3210 C   0  0  0  0  0  0  0  0  0  0  0  0
    2.3970    4.5850    1.0370 C   0  0  0  0  0  0  0  0  0  0  0  0
    2.7330    5.4690   -1.5810 N   0  0  0  0  0  0  0  0  0  0  0  0
    2.2590    4.3020    2.3490 N   0  0  0  0  0  0  0  0  0  0  0  0
    3.0440    5.7900    0.7750 C   0  0  0  0  0  0  0  0  0  0  0  0
    3.2140    6.2200   -0.5630 C   0  0  0  0  0  0  0  0  0  0  0  0
    2.9690    5.5400    3.1440 S   0  0  0  0  0  0  0  0  0  0  0  0
    3.4420    6.4590    1.8800 N   0  0  0  0  0  0  0  0  0  0  0  0
    3.8820    7.4790   -0.9530 C   0  0  0  0  0  0  0  0  0  0  0  0
    4.5310    8.2900   -0.1240 N   0  0  0  0  0  0  0  0  0  0  0  0
    3.8540    8.0050   -2.6330 B   0  0  0  0  0  0  0  0  0  0  0  0
    5.0510    9.3840   -0.7790 C   0  0  0  0  0  0  0  0  0  0  0  0
    4.7770    9.3880   -2.1240 C   0  0  0  0  0  0  0  0  0  0  0  0
    5.2540   10.4210   -3.0010 C   0  0  0  0  0  0  0  0  0  0  0  0
    4.3730   11.0890   -4.3920 C   0  0  0  0  0  0  0  0  0  0  0  0
    6.4650   11.0560   -2.8810 C   0  0  0  0  0  0  0  0  0  0  0  0
    5.6920   12.2190   -4.7740 C   0  0  0  0  0  0  0  0  0  0  0  0
    7.7810   10.7700   -1.7780 S   0  0  0  0  0  0  0  0  0  0  0  0
    6.6820   12.0130   -3.8570 C   0  0  0  0  0  0  0  0  0  0  0  0
    8.6670   12.0590   -2.6530 C   0  0  0  0  0  0  0  0  0  0  0  0
    7.9630   12.6060   -3.7200 C   0  0  0  0  0  0  0  0  0  0  0  0
   -0.6600   -0.9900    0.5450 H   0  0  0  0  0  0  0  0  0  0  0  0
   -1.1950    0.5060   -1.3710 H   0  0  0  0  0  0  0  0  0  0  0  0
    1.0590   -0.3030    2.2100 H   0  0  0  0  0  0  0  0  0  0  0  0
   -0.0470    2.6720   -1.6150 H   0  0  0  0  0  0  0  0  0  0  0  0
    2.2430    1.8360    1.9630 H   0  0  0  0  0  0  0  0  0  0  0  0
    1.7720    3.7570   -2.2010 H   0  0  0  0  0  0  0  0  0  0  0  0
    5.5910   10.1300   -0.2110 H   0  0  0  0  0  0  0  0  0  0  0  0
    5.6430   12.8980   -5.6140 H   0  0  0  0  0  0  0  0  0  0  0  0
    9.6640   12.3150   -2.3200 H   0  0  0  0  0  0  0  0  0  0  0  0
    8.3390   13.3820   -4.3770 H   0  0  0  0  0  0  0  0  0  0  0  0
  1 29  1  0  0  0  0
  1  3  2  0  0  0  0
  2  1  1  0  0  0  0
  3 31  1  0  0  0  0
  4  2  2  0  0  0  0
  4  6  1  0  0  0  0
  5  3  1  0  0  0  0
  5 33  1  0  0  0  0
  6  5  2  0  0  0  0
  7  6  1  0  0  0  0
  7  9  1  0  0  0  0
  8  7  2  0  0  0  0
  9 11  2  0  0  0  0
 10  8  1  0  0  0  0
 10 13  2  0  0  0  0
 11 14  1  0  0  0  0
 12  9  1  0  0  0  0
 12 15  2  0  0  0  0
 13 12  1  0  0  0  0
 15 14  1  0  0  0  0
 16 13  1  0  0  0  0
 16 17  2  0  0  0  0
 18 20  2  0  0  0  0
 18 16  1  0  0  0  0
 19 35  1  0  0  0  0
 19 17  1  0  0  0  0
 20 19  1  0  0  0  0
 21 23  2  0  0  0  0
 21 20  1  0  0  0  0
 22 21  1  0  0  0  0
 23 25  1  0  0  0  0
 24 22  2  0  0  0  0
 24 26  1  0  0  0  0
 26 28  2  0  0  0  0
 26 23  1  0  0  0  0
 27 37  1  0  0  0  0
 27 25  2  0  0  0  0
 28 27  1  0  0  0  0
 30  2  1  0  0  0  0
 32  4  1  0  0  0  0
 34  8  1  0  0  0  0
 36 24  1  0  0  0  0
 38 28  1  0  0  0  0
M  END
$$$$
scan_sander_basal/min_pdbs/min_pdb_C306_345.pdb
 OpenBabel09051719333D

 38 43  0  0  0  0  0  0  0  0999 V2000
   -0.1960   -0.0520    0.3970 C   0  0  0  0  0  0  0  0  0  0  0  0
   -0.2860    0.6970   -0.7810 C   0  0  0  0  0  0  0  0  0  0  0  0
    0.5770    0.4280    1.4590 C   0  0  0  0  0  0  0  0  0  0  0  0
    0.3930    1.9210   -0.8930 C   0  0  0  0  0  0  0  0  0  0  0  0
    1.2530    1.6530    1.3450 C   0  0  0  0  0  0  0  0  0  0  0  0
    1.1850    2.4500    0.1670 C   0  0  0  0  0  0  0  0  0  0  0  0
    1.9030    3.7800    0.0040 C   0  0  0  0  0  0  0  0  0  0  0  0
    2.0610    4.3540   -1.2870 C   0  0  0  0  0  0  0  0  0  0  0  0
    2.4750    4.5560    1.0560 C   0  0  0  0  0  0  0  0  0  0  0  0
    2.6980    5.5120   -1.5450 N   0  0  0  0  0  0  0  0  0  0  0  0
    2.4040    4.2580    2.3700 N   0  0  0  0  0  0  0  0  0  0  0  0
    3.1300    5.7590    0.7940 C   0  0  0  0  0  0  0  0  0  0  0  0
    3.2420    6.2260   -0.5360 C   0  0  0  0  0  0  0  0  0  0  0  0
    3.1750    5.4640    3.1580 S   0  0  0  0  0  0  0  0  0  0  0  0
    3.5960    6.3990    1.8900 N   0  0  0  0  0  0  0  0  0  0  0  0
    3.9110    7.4850   -0.9270 C   0  0  0  0  0  0  0  0  0  0  0  0
    4.6150    8.2640   -0.1120 N   0  0  0  0  0  0  0  0  0  0  0  0
    3.8070    8.0550   -2.5890 B   0  0  0  0  0  0  0  0  0  0  0  0
    5.1190    9.3660   -0.7640 C   0  0  0  0  0  0  0  0  0  0  0  0
    4.7770    9.4100   -2.0930 C   0  0  0  0  0  0  0  0  0  0  0  0
    5.2260   10.4590   -2.9670 C   0  0  0  0  0  0  0  0  0  0  0  0
    4.2880   11.1770   -4.2930 C   0  0  0  0  0  0  0  0  0  0  0  0
    6.4530   11.0710   -2.8930 C   0  0  0  0  0  0  0  0  0  0  0  0
    5.6040   12.2950   -4.7140 C   0  0  0  0  0  0  0  0  0  0  0  0
    7.8180   10.7350   -1.8670 S   0  0  0  0  0  0  0  0  0  0  0  0
    6.6360   12.0490   -3.8540 C   0  0  0  0  0  0  0  0  0  0  0  0
    8.6800   12.0320   -2.7530 C   0  0  0  0  0  0  0  0  0  0  0  0
    7.9320   12.6190   -3.7680 C   0  0  0  0  0  0  0  0  0  0  0  0
   -0.7200   -1.0000    0.4850 H   0  0  0  0  0  0  0  0  0  0  0  0
   -0.8890    0.3330   -1.6100 H   0  0  0  0  0  0  0  0  0  0  0  0
    0.6610   -0.1540    2.3730 H   0  0  0  0  0  0  0  0  0  0  0  0
    0.2610    2.4700   -1.8160 H   0  0  0  0  0  0  0  0  0  0  0  0
    1.8650    1.9470    2.1850 H   0  0  0  0  0  0  0  0  0  0  0  0
    1.6990    3.8500   -2.1780 H   0  0  0  0  0  0  0  0  0  0  0  0
    5.7000   10.0890   -0.2060 H   0  0  0  0  0  0  0  0  0  0  0  0
    5.5250   12.9960   -5.5320 H   0  0  0  0  0  0  0  0  0  0  0  0
    9.6970   12.2650   -2.4640 H   0  0  0  0  0  0  0  0  0  0  0  0
    8.2880   13.4060   -4.4230 H   0  0  0  0  0  0  0  0  0  0  0  0
  1 29  1  0  0  0  0
  1  3  2  0  0  0  0
  2  1  1  0  0  0  0
  3 31  1  0  0  0  0
  4  2  2  0  0  0  0
  4  6  1  0  0  0  0
  5  3  1  0  0  0  0
  5 33  1  0  0  0  0
  6  5  2  0  0  0  0
  7  6  1  0  0  0  0
  7  9  1  0  0  0  0
  8  7  2  0  0  0  0
  9 11  2  0  0  0  0
 10  8  1  0  0  0  0
 10 13  2  0  0  0  0
 11 14  1  0  0  0  0
 12  9  1  0  0  0  0
 12 15  2  0  0  0  0
 13 12  1  0  0  0  0
 15 14  1  0  0  0  0
 16 13  1  0  0  0  0
 16 17  2  0  0  0  0
 18 20  2  0  0  0  0
 18 16  1  0  0  0  0
 19 35  1  0  0  0  0
 19 17  1  0  0  0  0
 20 19  1  0  0  0  0
 21 23  2  0  0  0  0
 21 20  1  0  0  0  0
 22 21  1  0  0  0  0
 23 25  1  0  0  0  0
 24 22  2  0  0  0  0
 24 26  1  0  0  0  0
 26 28  2  0  0  0  0
 26 23  1  0  0  0  0
 27 37  1  0  0  0  0
 27 25  2  0  0  0  0
 28 27  1  0  0  0  0
 30  2  1  0  0  0  0
 32  4  1  0  0  0  0
 34  8  1  0  0  0  0
 36 24  1  0  0  0  0
 38 28  1  0  0  0  0
M  END
$$$$
scan_sander_basal/min_pdbs/min_pdb_C306_360.pdb
 OpenBabel09051719333D

 38 43  0  0  0  0  0  0  0  0999 V2000
   -0.2630   -0.0390    0.3790 C   0  0  0  0  0  0  0  0  0  0  0  0
   -0.1250    0.5950   -0.8590 C   0  0  0  0  0  0  0  0  0  0  0  0
    0.3030    0.5490    1.5140 C   0  0  0  0  0  0  0  0  0  0  0  0
    0.5750    1.8080   -0.9580 C   0  0  0  0  0  0  0  0  0  0  0  0
    1.0030    1.7620    1.4100 C   0  0  0  0  0  0  0  0  0  0  0  0
    1.1710    2.4480    0.1700 C   0  0  0  0  0  0  0  0  0  0  0  0
    1.9220    3.7690    0.0140 C   0  0  0  0  0  0  0  0  0  0  0  0
    2.0390    4.3820   -1.2660 C   0  0  0  0  0  0  0  0  0  0  0  0
    2.5610    4.5110    1.0570 C   0  0  0  0  0  0  0  0  0  0  0  0
    2.6770    5.5400   -1.5210 N   0  0  0  0  0  0  0  0  0  0  0  0
    2.5950    4.1620    2.3590 N   0  0  0  0  0  0  0  0  0  0  0  0
    3.2250    5.7110    0.7960 C   0  0  0  0  0  0  0  0  0  0  0  0
    3.2790    6.2170   -0.5230 C   0  0  0  0  0  0  0  0  0  0  0  0
    3.4300    5.3290    3.1380 S   0  0  0  0  0  0  0  0  0  0  0  0
    3.7720    6.3060    1.8800 N   0  0  0  0  0  0  0  0  0  0  0  0
    3.9460    7.4780   -0.9100 C   0  0  0  0  0  0  0  0  0  0  0  0
    4.7000    8.2240   -0.1100 N   0  0  0  0  0  0  0  0  0  0  0  0
    3.7680    8.0960   -2.5480 B   0  0  0  0  0  0  0  0  0  0  0  0
    5.1870    9.3390   -0.7560 C   0  0  0  0  0  0  0  0  0  0  0  0
    4.7800    9.4240   -2.0640 C   0  0  0  0  0  0  0  0  0  0  0  0
    5.2010   10.4920   -2.9300 C   0  0  0  0  0  0  0  0  0  0  0  0
    4.2080   11.2590   -4.1880 C   0  0  0  0  0  0  0  0  0  0  0  0
    6.4380   11.0860   -2.9000 C   0  0  0  0  0  0  0  0  0  0  0  0
    5.5170   12.3720   -4.6420 C   0  0  0  0  0  0  0  0  0  0  0  0
    7.8470   10.7040   -1.9530 S   0  0  0  0  0  0  0  0  0  0  0  0
    6.5870   12.0890   -3.8420 C   0  0  0  0  0  0  0  0  0  0  0  0
    8.6830   12.0150   -2.8450 C   0  0  0  0  0  0  0  0  0  0  0  0
    7.8940   12.6390   -3.8040 C   0  0  0  0  0  0  0  0  0  0  0  0
   -0.8040   -0.9780    0.4590 H   0  0  0  0  0  0  0  0  0  0  0  0
   -0.5610    0.1460   -1.7470 H   0  0  0  0  0  0  0  0  0  0  0  0
    0.2020    0.0640    2.4810 H   0  0  0  0  0  0  0  0  0  0  0  0
    0.6390    2.2360   -1.9480 H   0  0  0  0  0  0  0  0  0  0  0  0
    1.4080    2.1460    2.3320 H   0  0  0  0  0  0  0  0  0  0  0  0
    1.6030    3.9410   -2.1560 H   0  0  0  0  0  0  0  0  0  0  0  0
    5.8050   10.0370   -0.2080 H   0  0  0  0  0  0  0  0  0  0  0  0
    5.4070   13.0970   -5.4350 H   0  0  0  0  0  0  0  0  0  0  0  0
    9.7160   12.2260   -2.6000 H   0  0  0  0  0  0  0  0  0  0  0  0
    8.2270   13.4400   -4.4550 H   0  0  0  0  0  0  0  0  0  0  0  0
  1 29  1  0  0  0  0
  1  3  2  0  0  0  0
  2  1  1  0  0  0  0
  3 31  1  0  0  0  0
  4  2  2  0  0  0  0
  4  6  1  0  0  0  0
  5  3  1  0  0  0  0
  5 33  1  0  0  0  0
  6  5  2  0  0  0  0
  7  6  1  0  0  0  0
  7  9  1  0  0  0  0
  8  7  2  0  0  0  0
  9 11  2  0  0  0  0
 10  8  1  0  0  0  0
 10 13  2  0  0  0  0
 11 14  1  0  0  0  0
 12  9  1  0  0  0  0
 12 15  2  0  0  0  0
 13 12  1  0  0  0  0
 15 14  1  0  0  0  0
 16 13  1  0  0  0  0
 16 17  2  0  0  0  0
 18 20  2  0  0  0  0
 18 16  1  0  0  0  0
 19 35  1  0  0  0  0
 19 17  1  0  0  0  0
 20 19  1  0  0  0  0
 21 23  2  0  0  0  0
 21 20  1  0  0  0  0
 22 21  1  0  0  0  0
 23 25  1  0  0  0  0
 24 22  2  0  0  0  0
 24 26  1  0  0  0  0
 26 28  2  0  0  0  0
 26 23  1  0  0  0  0
 27 37  1  0  0  0  0
 27 25  2  0  0  0  0
 28 27  1  0  0  0  0
 30  2  1  0  0  0  0
 32  4  1  0  0  0  0
 34  8  1  0  0  0  0
 36 24  1  0  0  0  0
 38 28  1  0  0  0  0
M  END
$$$$
