scan_sander_basal/min_pdbs/min_pdb_C169_000.pdb
 OpenBabel09051718393D

 39 44  0  0  1  0  0  0  0  0999 V2000
    0.2450   -0.0990    0.7450 C   0  0  0  0  0  0  0  0  0  0  0  0
    1.6150    0.0630    0.9830 C   0  0  0  0  0  0  0  0  0  0  0  0
   -0.5000    1.0150    0.3370 C   0  0  0  0  0  0  0  0  0  0  0  0
    2.1780    1.3350    0.8020 C   0  0  0  0  0  0  0  0  0  0  0  0
    0.0490    2.2310    0.1660 N   0  0  0  0  0  0  0  0  0  0  0  0
    1.3690    2.4300    0.3850 C   0  0  0  0  0  0  0  0  0  0  0  0
    1.9510    3.8170    0.1770 C   0  0  0  0  0  0  0  0  0  0  0  0
    3.2760    3.9380    0.4120 N   0  0  0  0  0  0  0  0  0  0  0  0
    1.2300    4.9740   -0.2390 C   0  0  0  0  0  0  0  0  0  0  0  0
    3.9080    5.1170    0.2620 C   0  0  0  0  0  0  0  0  0  0  0  0
   -0.0960    5.0170   -0.5000 N   0  0  0  0  0  0  0  0  0  0  0  0
    1.8880    6.1940   -0.4040 C   0  0  0  0  0  0  0  0  0  0  0  0
    3.2840    6.3140   -0.1600 C   0  0  0  0  0  0  0  0  0  0  0  0
   -0.4240    6.5590   -0.9140 S   0  0  0  0  0  0  0  0  0  0  0  0
    1.0710    7.2030   -0.7830 N   0  0  0  0  0  0  0  0  0  0  0  0
    4.0500    7.5910   -0.2970 C   0  0  1  0  0  0  0  0  0  0  0  0
    3.3540    9.0260   -1.0940 B   0  0  0  0  0  0  0  0  0  0  0  0
    5.4150    7.8790    0.1810 C   0  0  0  0  0  0  0  0  0  0  0  0
    4.8320    9.9350   -0.8200 C   0  0  0  0  0  0  0  0  0  0  0  0
    6.1960    7.0130    0.8600 N   0  0  0  0  0  0  0  0  0  0  0  0
    5.8580    9.1730   -0.1220 C   0  0  0  0  0  0  0  0  0  0  0  0
    4.9890   11.3100   -1.2340 C   0  0  0  0  0  0  0  0  0  0  0  0
    7.4320    7.4430    1.1890 C   0  0  0  0  0  0  0  0  0  0  0  0
    7.1020    9.6040    0.1770 N   0  0  0  0  0  0  0  0  0  0  0  0
    5.8780   12.1980   -0.6730 C   0  0  0  0  0  0  0  0  0  0  0  0
    4.0570   12.0440   -2.5340 S   0  0  0  0  0  0  0  0  0  0  0  0
    7.8880    8.7290    0.8390 C   0  0  0  0  0  0  0  0  0  0  0  0
    5.8290   13.4810   -1.2910 C   0  0  0  0  0  0  0  0  0  0  0  0
    4.9120   13.5660   -2.3100 C   0  0  0  0  0  0  0  0  0  0  0  0
   -0.2310   -1.0660    0.8730 H   0  0  0  0  0  0  0  0  0  0  0  0
    2.2290   -0.7770    1.3000 H   0  0  0  0  0  0  0  0  0  0  0  0
   -1.5690    0.9340    0.1410 H   0  0  0  0  0  0  0  0  0  0  0  0
    3.2390    1.4710    0.9830 H   0  0  0  0  0  0  0  0  0  0  0  0
    4.9730    5.0520    0.4480 H   0  0  0  0  0  0  0  0  0  0  0  0
    8.0690    6.7450    1.7310 H   0  0  0  0  0  0  0  0  0  0  0  0
    6.5330   11.9910    0.1620 H   0  0  0  0  0  0  0  0  0  0  0  0
    8.8910    9.0650    1.0960 H   0  0  0  0  0  0  0  0  0  0  0  0
    6.4580   14.3090   -0.9770 H   0  0  0  0  0  0  0  0  0  0  0  0
    4.6750   14.4150   -2.9370 H   0  0  0  0  0  0  0  0  0  0  0  0
  1 30  1  0  0  0  0
  1  2  2  0  0  0  0
  2 31  1  0  0  0  0
  3  1  1  0  0  0  0
  4 33  1  0  0  0  0
  4  2  1  0  0  0  0
  5  3  2  0  0  0  0
  5  6  1  0  0  0  0
  6  4  2  0  0  0  0
  7  6  1  0  0  0  0
  7  8  2  0  0  0  0
  9  7  1  0  0  0  0
 10  8  1  0  0  0  0
 10 34  1  0  0  0  0
 11  9  2  0  0  0  0
 12  9  1  0  0  0  0
 12 13  1  0  0  0  0
 13 10  2  0  0  0  0
 14 15  1  0  0  0  0
 14 11  1  0  0  0  0
 15 12  2  0  0  0  0
 16 13  1  1  0  0  0
 16 18  1  0  0  0  0
 17 19  2  0  0  0  0
 17 16  1  0  0  0  0
 18 20  2  0  0  0  0
 19 21  1  0  0  0  0
 20 23  1  0  0  0  0
 21 24  2  0  0  0  0
 21 18  1  0  0  0  0
 22 19  1  0  0  0  0
 22 25  2  0  0  0  0
 23 35  1  0  0  0  0
 24 27  1  0  0  0  0
 25 36  1  0  0  0  0
 26 29  1  0  0  0  0
 26 22  1  0  0  0  0
 27 37  1  0  0  0  0
 27 23  2  0  0  0  0
 28 38  1  0  0  0  0
 28 25  1  0  0  0  0
 29 28  2  0  0  0  0
 32  3  1  0  0  0  0
 39 29  1  0  0  0  0
M  END
$$$$
scan_sander_basal/min_pdbs/min_pdb_C169_015.pdb
 OpenBabel09051718393D

 39 44  0  0  1  0  0  0  0  0999 V2000
    0.2720   -0.1170    0.6340 C   0  0  0  0  0  0  0  0  0  0  0  0
    1.5510    0.1130    1.1550 C   0  0  0  0  0  0  0  0  0  0  0  0
   -0.3970    0.9420    0.0030 C   0  0  0  0  0  0  0  0  0  0  0  0
    2.1040    1.3950    1.0220 C   0  0  0  0  0  0  0  0  0  0  0  0
    0.1430    2.1680   -0.1220 N   0  0  0  0  0  0  0  0  0  0  0  0
    1.3740    2.4300    0.3730 C   0  0  0  0  0  0  0  0  0  0  0  0
    1.9530    3.8210    0.1990 C   0  0  0  0  0  0  0  0  0  0  0  0
    3.2830    3.9320    0.4020 N   0  0  0  0  0  0  0  0  0  0  0  0
    1.2210    4.9840   -0.1720 C   0  0  0  0  0  0  0  0  0  0  0  0
    3.9130    5.1140    0.2550 C   0  0  0  0  0  0  0  0  0  0  0  0
   -0.1160    5.0330   -0.3700 N   0  0  0  0  0  0  0  0  0  0  0  0
    1.8750    6.2060   -0.3320 C   0  0  0  0  0  0  0  0  0  0  0  0
    3.2780    6.3180   -0.1300 C   0  0  0  0  0  0  0  0  0  0  0  0
   -0.4540    6.5830   -0.7460 S   0  0  0  0  0  0  0  0  0  0  0  0
    1.0460    7.2230   -0.6600 N   0  0  0  0  0  0  0  0  0  0  0  0
    4.0430    7.5960   -0.2700 C   0  0  1  0  0  0  0  0  0  0  0  0
    3.3250    9.0430   -1.0240 B   0  0  0  0  0  0  0  0  0  0  0  0
    5.4220    7.8740    0.1700 C   0  0  0  0  0  0  0  0  0  0  0  0
    4.8200    9.9400   -0.7980 C   0  0  0  0  0  0  0  0  0  0  0  0
    6.2170    7.0000    0.8220 N   0  0  0  0  0  0  0  0  0  0  0  0
    5.8630    9.1670   -0.1370 C   0  0  0  0  0  0  0  0  0  0  0  0
    4.9730   11.3150   -1.2140 C   0  0  0  0  0  0  0  0  0  0  0  0
    7.4640    7.4220    1.1180 C   0  0  0  0  0  0  0  0  0  0  0  0
    7.1170    9.5910    0.1300 N   0  0  0  0  0  0  0  0  0  0  0  0
    5.8870   12.1950   -0.6830 C   0  0  0  0  0  0  0  0  0  0  0  0
    4.0030   12.0580   -2.4800 S   0  0  0  0  0  0  0  0  0  0  0  0
    7.9160    8.7080    0.7630 C   0  0  0  0  0  0  0  0  0  0  0  0
    5.8280   13.4800   -1.2960 C   0  0  0  0  0  0  0  0  0  0  0  0
    4.8770   13.5740   -2.2830 C   0  0  0  0  0  0  0  0  0  0  0  0
   -0.1940   -1.0940    0.7150 H   0  0  0  0  0  0  0  0  0  0  0  0
    2.1020   -0.6820    1.6510 H   0  0  0  0  0  0  0  0  0  0  0  0
   -1.3930    0.8050   -0.4180 H   0  0  0  0  0  0  0  0  0  0  0  0
    3.0940    1.5890    1.4210 H   0  0  0  0  0  0  0  0  0  0  0  0
    4.9820    5.0450    0.4080 H   0  0  0  0  0  0  0  0  0  0  0  0
    8.1120    6.7180    1.6380 H   0  0  0  0  0  0  0  0  0  0  0  0
    6.5690   11.9820    0.1290 H   0  0  0  0  0  0  0  0  0  0  0  0
    8.9280    9.0370    0.9950 H   0  0  0  0  0  0  0  0  0  0  0  0
    6.4730   14.3020   -1.0030 H   0  0  0  0  0  0  0  0  0  0  0  0
    4.6250   14.4250   -2.9010 H   0  0  0  0  0  0  0  0  0  0  0  0
  1 30  1  0  0  0  0
  1  2  2  0  0  0  0
  2 31  1  0  0  0  0
  3  1  1  0  0  0  0
  4  2  1  0  0  0  0
  4 33  1  0  0  0  0
  5  3  2  0  0  0  0
  5  6  1  0  0  0  0
  6  4  2  0  0  0  0
  7  6  1  0  0  0  0
  7  8  2  0  0  0  0
  9  7  1  0  0  0  0
 10  8  1  0  0  0  0
 10 34  1  0  0  0  0
 11  9  2  0  0  0  0
 12  9  1  0  0  0  0
 12 13  1  0  0  0  0
 13 10  2  0  0  0  0
 14 15  1  0  0  0  0
 14 11  1  0  0  0  0
 15 12  2  0  0  0  0
 16 13  1  1  0  0  0
 16 18  1  0  0  0  0
 17 19  2  0  0  0  0
 17 16  1  0  0  0  0
 18 20  2  0  0  0  0
 19 21  1  0  0  0  0
 20 23  1  0  0  0  0
 21 24  2  0  0  0  0
 21 18  1  0  0  0  0
 22 19  1  0  0  0  0
 22 25  2  0  0  0  0
 23 35  1  0  0  0  0
 24 27  1  0  0  0  0
 25 36  1  0  0  0  0
 26 29  1  0  0  0  0
 26 22  1  0  0  0  0
 27 37  1  0  0  0  0
 27 23  2  0  0  0  0
 28 38  1  0  0  0  0
 28 25  1  0  0  0  0
 29 28  2  0  0  0  0
 32  3  1  0  0  0  0
 39 29  1  0  0  0  0
M  END
$$$$
scan_sander_basal/min_pdbs/min_pdb_C169_030.pdb
 OpenBabel09051718393D

 39 44  0  0  1  0  0  0  0  0999 V2000
    0.2950   -0.1170    0.5610 C   0  0  0  0  0  0  0  0  0  0  0  0
    1.4250    0.1870    1.3310 C   0  0  0  0  0  0  0  0  0  0  0  0
   -0.2310    0.8710   -0.2830 C   0  0  0  0  0  0  0  0  0  0  0  0
    1.9770    1.4710    1.2220 C   0  0  0  0  0  0  0  0  0  0  0  0
    0.3060    2.1010   -0.3840 N   0  0  0  0  0  0  0  0  0  0  0  0
    1.3930    2.4280    0.3510 C   0  0  0  0  0  0  0  0  0  0  0  0
    1.9760    3.8120    0.1990 C   0  0  0  0  0  0  0  0  0  0  0  0
    3.3110    3.9150    0.3760 N   0  0  0  0  0  0  0  0  0  0  0  0
    1.2340    4.9750   -0.1350 C   0  0  0  0  0  0  0  0  0  0  0  0
    3.9330    5.1010    0.2320 C   0  0  0  0  0  0  0  0  0  0  0  0
   -0.1080    5.0160   -0.2910 N   0  0  0  0  0  0  0  0  0  0  0  0
    1.8790    6.2000   -0.2920 C   0  0  0  0  0  0  0  0  0  0  0  0
    3.2870    6.3100   -0.1200 C   0  0  0  0  0  0  0  0  0  0  0  0
   -0.4610    6.5700   -0.6370 S   0  0  0  0  0  0  0  0  0  0  0  0
    1.0380    7.2180   -0.5810 N   0  0  0  0  0  0  0  0  0  0  0  0
    4.0470    7.5910   -0.2610 C   0  0  1  0  0  0  0  0  0  0  0  0
    3.3080    9.0470   -0.9770 B   0  0  0  0  0  0  0  0  0  0  0  0
    5.4350    7.8660    0.1500 C   0  0  0  0  0  0  0  0  0  0  0  0
    4.8080    9.9420   -0.7800 C   0  0  0  0  0  0  0  0  0  0  0  0
    6.2460    6.9860    0.7750 N   0  0  0  0  0  0  0  0  0  0  0  0
    5.8670    9.1630   -0.1530 C   0  0  0  0  0  0  0  0  0  0  0  0
    4.9510   11.3200   -1.1880 C   0  0  0  0  0  0  0  0  0  0  0  0
    7.4990    7.4060    1.0470 C   0  0  0  0  0  0  0  0  0  0  0  0
    7.1260    9.5850    0.0900 N   0  0  0  0  0  0  0  0  0  0  0  0
    5.8780   12.1960   -0.6720 C   0  0  0  0  0  0  0  0  0  0  0  0
    3.9490   12.0750   -2.4230 S   0  0  0  0  0  0  0  0  0  0  0  0
    7.9410    8.6970    0.6950 C   0  0  0  0  0  0  0  0  0  0  0  0
    5.8030   13.4860   -1.2730 C   0  0  0  0  0  0  0  0  0  0  0  0
    4.8280   13.5880   -2.2340 C   0  0  0  0  0  0  0  0  0  0  0  0
   -0.1650   -1.0990    0.6130 H   0  0  0  0  0  0  0  0  0  0  0  0
    1.8630   -0.5540    1.9950 H   0  0  0  0  0  0  0  0  0  0  0  0
   -1.1080    0.6740   -0.9000 H   0  0  0  0  0  0  0  0  0  0  0  0
    2.8540    1.7310    1.8080 H   0  0  0  0  0  0  0  0  0  0  0  0
    5.0060    5.0330    0.3600 H   0  0  0  0  0  0  0  0  0  0  0  0
    8.1590    6.6970    1.5440 H   0  0  0  0  0  0  0  0  0  0  0  0
    6.5800   11.9760    0.1210 H   0  0  0  0  0  0  0  0  0  0  0  0
    8.9580    9.0240    0.9070 H   0  0  0  0  0  0  0  0  0  0  0  0
    6.4560   14.3060   -0.9890 H   0  0  0  0  0  0  0  0  0  0  0  0
    4.5600   14.4450   -2.8390 H   0  0  0  0  0  0  0  0  0  0  0  0
  1 30  1  0  0  0  0
  1  2  2  0  0  0  0
  2 31  1  0  0  0  0
  3  1  1  0  0  0  0
  4  2  1  0  0  0  0
  4 33  1  0  0  0  0
  5  3  2  0  0  0  0
  5  6  1  0  0  0  0
  6  4  2  0  0  0  0
  7  6  1  0  0  0  0
  7  8  2  0  0  0  0
  9  7  1  0  0  0  0
 10 34  1  0  0  0  0
 10  8  1  0  0  0  0
 11  9  2  0  0  0  0
 12  9  1  0  0  0  0
 12 13  1  0  0  0  0
 13 10  2  0  0  0  0
 14 15  1  0  0  0  0
 14 11  1  0  0  0  0
 15 12  2  0  0  0  0
 16 13  1  1  0  0  0
 16 18  1  0  0  0  0
 17 19  2  0  0  0  0
 17 16  1  0  0  0  0
 18 20  2  0  0  0  0
 19 21  1  0  0  0  0
 20 23  1  0  0  0  0
 21 24  2  0  0  0  0
 21 18  1  0  0  0  0
 22 19  1  0  0  0  0
 22 25  2  0  0  0  0
 23 35  1  0  0  0  0
 24 27  1  0  0  0  0
 25 36  1  0  0  0  0
 26 29  1  0  0  0  0
 26 22  1  0  0  0  0
 27 37  1  0  0  0  0
 27 23  2  0  0  0  0
 28 38  1  0  0  0  0
 28 25  1  0  0  0  0
 29 28  2  0  0  0  0
 32  3  1  0  0  0  0
 39 29  1  0  0  0  0
M  END
$$$$
scan_sander_basal/min_pdbs/min_pdb_C169_045.pdb
 OpenBabel09051718393D

 39 44  0  0  1  0  0  0  0  0999 V2000
    0.3080   -0.1090    0.5390 C   0  0  0  0  0  0  0  0  0  0  0  0
    1.2410    0.2880    1.5060 C   0  0  0  0  0  0  0  0  0  0  0  0
   -0.0200    0.7840   -0.4930 C   0  0  0  0  0  0  0  0  0  0  0  0
    1.8050    1.5680    1.3980 C   0  0  0  0  0  0  0  0  0  0  0  0
    0.5260    2.0110   -0.5920 N   0  0  0  0  0  0  0  0  0  0  0  0
    1.4240    2.4200    0.3320 C   0  0  0  0  0  0  0  0  0  0  0  0
    2.0180    3.7920    0.1790 C   0  0  0  0  0  0  0  0  0  0  0  0
    3.3540    3.8890    0.3350 N   0  0  0  0  0  0  0  0  0  0  0  0
    1.2640    4.9500   -0.1290 C   0  0  0  0  0  0  0  0  0  0  0  0
    3.9690    5.0800    0.1920 C   0  0  0  0  0  0  0  0  0  0  0  0
   -0.0800    4.9760   -0.2620 N   0  0  0  0  0  0  0  0  0  0  0  0
    1.9000    6.1790   -0.2860 C   0  0  0  0  0  0  0  0  0  0  0  0
    3.3110    6.2920   -0.1370 C   0  0  0  0  0  0  0  0  0  0  0  0
   -0.4490    6.5310   -0.5890 S   0  0  0  0  0  0  0  0  0  0  0  0
    1.0460    7.1930   -0.5520 N   0  0  0  0  0  0  0  0  0  0  0  0
    4.0620    7.5770   -0.2770 C   0  0  1  0  0  0  0  0  0  0  0  0
    3.3030    9.0370   -0.9650 B   0  0  0  0  0  0  0  0  0  0  0  0
    5.4560    7.8550    0.1130 C   0  0  0  0  0  0  0  0  0  0  0  0
    4.7990    9.9400   -0.7740 C   0  0  0  0  0  0  0  0  0  0  0  0
    6.2840    6.9700    0.7070 N   0  0  0  0  0  0  0  0  0  0  0  0
    5.8740    9.1600   -0.1770 C   0  0  0  0  0  0  0  0  0  0  0  0
    4.9240   11.3280   -1.1570 C   0  0  0  0  0  0  0  0  0  0  0  0
    7.5390    7.3940    0.9620 C   0  0  0  0  0  0  0  0  0  0  0  0
    7.1350    9.5860    0.0480 N   0  0  0  0  0  0  0  0  0  0  0  0
    5.8520   12.2010   -0.6390 C   0  0  0  0  0  0  0  0  0  0  0  0
    3.8980   12.0970   -2.3630 S   0  0  0  0  0  0  0  0  0  0  0  0
    7.9660    8.6930    0.6240 C   0  0  0  0  0  0  0  0  0  0  0  0
    5.7580   13.5010   -1.2140 C   0  0  0  0  0  0  0  0  0  0  0  0
    4.7670   13.6140   -2.1590 C   0  0  0  0  0  0  0  0  0  0  0  0
   -0.1530   -1.0910    0.5830 H   0  0  0  0  0  0  0  0  0  0  0  0
    1.5220   -0.3780    2.3170 H   0  0  0  0  0  0  0  0  0  0  0  0
   -0.7390    0.5110   -1.2640 H   0  0  0  0  0  0  0  0  0  0  0  0
    2.5340    1.9060    2.1290 H   0  0  0  0  0  0  0  0  0  0  0  0
    5.0440    5.0160    0.3000 H   0  0  0  0  0  0  0  0  0  0  0  0
    8.2140    6.6820    1.4350 H   0  0  0  0  0  0  0  0  0  0  0  0
    6.5680   11.9710    0.1380 H   0  0  0  0  0  0  0  0  0  0  0  0
    8.9850    9.0240    0.8210 H   0  0  0  0  0  0  0  0  0  0  0  0
    6.4080   14.3210   -0.9240 H   0  0  0  0  0  0  0  0  0  0  0  0
    4.4840   14.4800   -2.7420 H   0  0  0  0  0  0  0  0  0  0  0  0
  1 30  1  0  0  0  0
  1  2  2  0  0  0  0
  2 31  1  0  0  0  0
  3  1  1  0  0  0  0
  4  2  1  0  0  0  0
  4 33  1  0  0  0  0
  5  3  2  0  0  0  0
  5  6  1  0  0  0  0
  6  4  2  0  0  0  0
  7  6  1  0  0  0  0
  7  8  2  0  0  0  0
  9  7  1  0  0  0  0
 10 34  1  0  0  0  0
 10  8  1  0  0  0  0
 11  9  2  0  0  0  0
 12 13  1  0  0  0  0
 12  9  1  0  0  0  0
 13 10  2  0  0  0  0
 14 15  1  0  0  0  0
 14 11  1  0  0  0  0
 15 12  2  0  0  0  0
 16 13  1  1  0  0  0
 16 18  1  0  0  0  0
 17 19  2  0  0  0  0
 17 16  1  0  0  0  0
 18 20  2  0  0  0  0
 19 21  1  0  0  0  0
 20 23  1  0  0  0  0
 21 24  2  0  0  0  0
 21 18  1  0  0  0  0
 22 19  1  0  0  0  0
 22 25  2  0  0  0  0
 23 35  1  0  0  0  0
 24 27  1  0  0  0  0
 25 36  1  0  0  0  0
 26 29  1  0  0  0  0
 26 22  1  0  0  0  0
 27 37  1  0  0  0  0
 27 23  2  0  0  0  0
 28 38  1  0  0  0  0
 28 25  1  0  0  0  0
 29 28  2  0  0  0  0
 32  3  1  0  0  0  0
 39 29  1  0  0  0  0
M  END
$$$$
scan_sander_basal/min_pdbs/min_pdb_C169_060.pdb
 OpenBabel09051718393D

 39 44  0  0  1  0  0  0  0  0999 V2000
    0.3280   -0.1090    0.5230 C   0  0  0  0  0  0  0  0  0  0  0  0
    1.0270    0.3990    1.6270 C   0  0  0  0  0  0  0  0  0  0  0  0
    0.2330    0.6740   -0.6390 C   0  0  0  0  0  0  0  0  0  0  0  0
    1.6010    1.6740    1.5190 C   0  0  0  0  0  0  0  0  0  0  0  0
    0.7870    1.8970   -0.7380 N   0  0  0  0  0  0  0  0  0  0  0  0
    1.4620    2.4070    0.3160 C   0  0  0  0  0  0  0  0  0  0  0  0
    2.0630    3.7690    0.1600 C   0  0  0  0  0  0  0  0  0  0  0  0
    3.4010    3.8660    0.2940 N   0  0  0  0  0  0  0  0  0  0  0  0
    1.2980    4.9230   -0.1220 C   0  0  0  0  0  0  0  0  0  0  0  0
    4.0060    5.0620    0.1530 C   0  0  0  0  0  0  0  0  0  0  0  0
   -0.0470    4.9330   -0.2360 N   0  0  0  0  0  0  0  0  0  0  0  0
    1.9230    6.1570   -0.2770 C   0  0  0  0  0  0  0  0  0  0  0  0
    3.3360    6.2750   -0.1510 C   0  0  0  0  0  0  0  0  0  0  0  0
   -0.4330    6.4890   -0.5420 S   0  0  0  0  0  0  0  0  0  0  0  0
    1.0570    7.1650   -0.5200 N   0  0  0  0  0  0  0  0  0  0  0  0
    4.0770    7.5660   -0.2880 C   0  0  1  0  0  0  0  0  0  0  0  0
    3.2970    9.0280   -0.9450 B   0  0  0  0  0  0  0  0  0  0  0  0
    5.4750    7.8480    0.0810 C   0  0  0  0  0  0  0  0  0  0  0  0
    4.7880    9.9410   -0.7640 C   0  0  0  0  0  0  0  0  0  0  0  0
    6.3200    6.9600    0.6470 N   0  0  0  0  0  0  0  0  0  0  0  0
    5.8790    9.1600   -0.1970 C   0  0  0  0  0  0  0  0  0  0  0  0
    4.8970   11.3350   -1.1260 C   0  0  0  0  0  0  0  0  0  0  0  0
    7.5770    7.3890    0.8850 C   0  0  0  0  0  0  0  0  0  0  0  0
    7.1410    9.5910    0.0110 N   0  0  0  0  0  0  0  0  0  0  0  0
    5.8260   12.2070   -0.6080 C   0  0  0  0  0  0  0  0  0  0  0  0
    3.8450   12.1160   -2.3020 S   0  0  0  0  0  0  0  0  0  0  0  0
    7.9890    8.6960    0.5580 C   0  0  0  0  0  0  0  0  0  0  0  0
    5.7130   13.5160   -1.1600 C   0  0  0  0  0  0  0  0  0  0  0  0
    4.7060   13.6370   -2.0860 C   0  0  0  0  0  0  0  0  0  0  0  0
   -0.1310   -1.0910    0.5610 H   0  0  0  0  0  0  0  0  0  0  0  0
    1.1240   -0.1810    2.5410 H   0  0  0  0  0  0  0  0  0  0  0  0
   -0.3000    0.3120   -1.5170 H   0  0  0  0  0  0  0  0  0  0  0  0
    2.1530    2.0990    2.3520 H   0  0  0  0  0  0  0  0  0  0  0  0
    5.0840    5.0030    0.2410 H   0  0  0  0  0  0  0  0  0  0  0  0
    8.2650    6.6740    1.3340 H   0  0  0  0  0  0  0  0  0  0  0  0
    6.5570   11.9700    0.1540 H   0  0  0  0  0  0  0  0  0  0  0  0
    9.0090    9.0310    0.7420 H   0  0  0  0  0  0  0  0  0  0  0  0
    6.3610   14.3360   -0.8670 H   0  0  0  0  0  0  0  0  0  0  0  0
    4.4070   14.5100   -2.6510 H   0  0  0  0  0  0  0  0  0  0  0  0
  1 30  1  0  0  0  0
  1  2  2  0  0  0  0
  2 31  1  0  0  0  0
  3  1  1  0  0  0  0
  4  2  1  0  0  0  0
  4 33  1  0  0  0  0
  5  3  2  0  0  0  0
  5  6  1  0  0  0  0
  6  4  2  0  0  0  0
  7  8  2  0  0  0  0
  7  6  1  0  0  0  0
  9  7  1  0  0  0  0
 10 34  1  0  0  0  0
 10  8  1  0  0  0  0
 11  9  2  0  0  0  0
 12 13  1  0  0  0  0
 12  9  1  0  0  0  0
 13 10  2  0  0  0  0
 14 15  1  0  0  0  0
 14 11  1  0  0  0  0
 15 12  2  0  0  0  0
 16 13  1  1  0  0  0
 16 18  1  0  0  0  0
 17 19  2  0  0  0  0
 17 16  1  0  0  0  0
 18 20  2  0  0  0  0
 19 21  1  0  0  0  0
 20 23  1  0  0  0  0
 21 24  2  0  0  0  0
 21 18  1  0  0  0  0
 22 19  1  0  0  0  0
 22 25  2  0  0  0  0
 23 35  1  0  0  0  0
 24 27  1  0  0  0  0
 25 36  1  0  0  0  0
 26 29  1  0  0  0  0
 26 22  1  0  0  0  0
 27 37  1  0  0  0  0
 27 23  2  0  0  0  0
 28 38  1  0  0  0  0
 28 25  1  0  0  0  0
 29 28  2  0  0  0  0
 32  3  1  0  0  0  0
 39 29  1  0  0  0  0
M  END
$$$$
scan_sander_basal/min_pdbs/min_pdb_C169_075.pdb
 OpenBabel09051718393D

 39 44  0  0  1  0  0  0  0  0999 V2000
    0.3590   -0.1170    0.5390 C   0  0  0  0  0  0  0  0  0  0  0  0
    0.7940    0.5260    1.7070 C   0  0  0  0  0  0  0  0  0  0  0  0
    0.5190    0.5350   -0.6940 C   0  0  0  0  0  0  0  0  0  0  0  0
    1.3720    1.7980    1.5880 C   0  0  0  0  0  0  0  0  0  0  0  0
    1.0750    1.7560   -0.8040 N   0  0  0  0  0  0  0  0  0  0  0  0
    1.5000    2.3910    0.3090 C   0  0  0  0  0  0  0  0  0  0  0  0
    2.1050    3.7460    0.1370 C   0  0  0  0  0  0  0  0  0  0  0  0
    3.4440    3.8440    0.2530 N   0  0  0  0  0  0  0  0  0  0  0  0
    1.3330    4.8960   -0.1310 C   0  0  0  0  0  0  0  0  0  0  0  0
    4.0430    5.0430    0.1050 C   0  0  0  0  0  0  0  0  0  0  0  0
   -0.0130    4.8950   -0.2330 N   0  0  0  0  0  0  0  0  0  0  0  0
    1.9500    6.1320   -0.2920 C   0  0  0  0  0  0  0  0  0  0  0  0
    3.3640    6.2550   -0.1830 C   0  0  0  0  0  0  0  0  0  0  0  0
   -0.4110    6.4500   -0.5310 S   0  0  0  0  0  0  0  0  0  0  0  0
    1.0750    7.1350   -0.5230 N   0  0  0  0  0  0  0  0  0  0  0  0
    4.0970    7.5510   -0.3230 C   0  0  1  0  0  0  0  0  0  0  0  0
    3.3010    9.0130   -0.9630 B   0  0  0  0  0  0  0  0  0  0  0  0
    5.4990    7.8380    0.0290 C   0  0  0  0  0  0  0  0  0  0  0  0
    4.7800    9.9410   -0.7650 C   0  0  0  0  0  0  0  0  0  0  0  0
    6.3620    6.9460    0.5590 N   0  0  0  0  0  0  0  0  0  0  0  0
    5.8860    9.1590   -0.2290 C   0  0  0  0  0  0  0  0  0  0  0  0
    4.8680   11.3460   -1.0870 C   0  0  0  0  0  0  0  0  0  0  0  0
    7.6190    7.3820    0.7840 C   0  0  0  0  0  0  0  0  0  0  0  0
    7.1480    9.5980   -0.0340 N   0  0  0  0  0  0  0  0  0  0  0  0
    5.7900   12.2140   -0.5500 C   0  0  0  0  0  0  0  0  0  0  0  0
    3.7990   12.1470   -2.2330 S   0  0  0  0  0  0  0  0  0  0  0  0
    8.0140    8.6990    0.4780 C   0  0  0  0  0  0  0  0  0  0  0  0
    5.6550   13.5380   -1.0600 C   0  0  0  0  0  0  0  0  0  0  0  0
    4.6400   13.6720   -1.9760 C   0  0  0  0  0  0  0  0  0  0  0  0
   -0.0940   -1.1020    0.5850 H   0  0  0  0  0  0  0  0  0  0  0  0
    0.6880    0.0500    2.6790 H   0  0  0  0  0  0  0  0  0  0  0  0
    0.1930    0.0660   -1.6220 H   0  0  0  0  0  0  0  0  0  0  0  0
    1.7240    2.3260    2.4680 H   0  0  0  0  0  0  0  0  0  0  0  0
    5.1220    4.9880    0.1790 H   0  0  0  0  0  0  0  0  0  0  0  0
    8.3220    6.6640    1.2050 H   0  0  0  0  0  0  0  0  0  0  0  0
    6.5280   11.9630    0.2000 H   0  0  0  0  0  0  0  0  0  0  0  0
    9.0330    9.0400    0.6510 H   0  0  0  0  0  0  0  0  0  0  0  0
    6.2940   14.3570   -0.7470 H   0  0  0  0  0  0  0  0  0  0  0  0
    4.3250   14.5580   -2.5120 H   0  0  0  0  0  0  0  0  0  0  0  0
  1 30  1  0  0  0  0
  1  2  2  0  0  0  0
  2 31  1  0  0  0  0
  3  1  1  0  0  0  0
  4  2  1  0  0  0  0
  4 33  1  0  0  0  0
  5  3  2  0  0  0  0
  5  6  1  0  0  0  0
  6  4  2  0  0  0  0
  7  8  2  0  0  0  0
  7  6  1  0  0  0  0
  9  7  1  0  0  0  0
 10 34  1  0  0  0  0
 10  8  1  0  0  0  0
 11  9  2  0  0  0  0
 12 13  1  0  0  0  0
 12  9  1  0  0  0  0
 13 10  2  0  0  0  0
 14 15  1  0  0  0  0
 14 11  1  0  0  0  0
 15 12  2  0  0  0  0
 16 13  1  1  0  0  0
 16 18  1  0  0  0  0
 17 19  2  0  0  0  0
 17 16  1  0  0  0  0
 18 20  2  0  0  0  0
 19 21  1  0  0  0  0
 20 23  1  0  0  0  0
 21 24  2  0  0  0  0
 21 18  1  0  0  0  0
 22 19  1  0  0  0  0
 22 25  2  0  0  0  0
 23 35  1  0  0  0  0
 24 27  1  0  0  0  0
 25 36  1  0  0  0  0
 26 29  1  0  0  0  0
 26 22  1  0  0  0  0
 27 37  1  0  0  0  0
 27 23  2  0  0  0  0
 28 38  1  0  0  0  0
 28 25  1  0  0  0  0
 29 28  2  0  0  0  0
 32  3  1  0  0  0  0
 39 29  1  0  0  0  0
M  END
$$$$
scan_sander_basal/min_pdbs/min_pdb_C169_090.pdb
 OpenBabel09051718393D

 39 44  0  0  1  0  0  0  0  0999 V2000
    0.4170   -0.1450    0.4940 C   0  0  0  0  0  0  0  0  0  0  0  0
    0.5870    0.5990    1.6700 C   0  0  0  0  0  0  0  0  0  0  0  0
    0.8170    0.4160   -0.7290 C   0  0  0  0  0  0  0  0  0  0  0  0
    1.1520    1.8790    1.5690 C   0  0  0  0  0  0  0  0  0  0  0  0
    1.3590    1.6450   -0.8230 N   0  0  0  0  0  0  0  0  0  0  0  0
    1.5320    2.3760    0.2990 C   0  0  0  0  0  0  0  0  0  0  0  0
    2.1320    3.7350    0.1430 C   0  0  0  0  0  0  0  0  0  0  0  0
    3.4730    3.8360    0.2220 N   0  0  0  0  0  0  0  0  0  0  0  0
    1.3470    4.8870   -0.0710 C   0  0  0  0  0  0  0  0  0  0  0  0
    4.0620    5.0420    0.0870 C   0  0  0  0  0  0  0  0  0  0  0  0
   -0.0020    4.8790   -0.1360 N   0  0  0  0  0  0  0  0  0  0  0  0
    1.9530    6.1290   -0.2200 C   0  0  0  0  0  0  0  0  0  0  0  0
    3.3690    6.2570   -0.1520 C   0  0  0  0  0  0  0  0  0  0  0  0
   -0.4160    6.4400   -0.3810 S   0  0  0  0  0  0  0  0  0  0  0  0
    1.0660    7.1330   -0.3990 N   0  0  0  0  0  0  0  0  0  0  0  0
    4.0920    7.5580   -0.2850 C   0  0  1  0  0  0  0  0  0  0  0  0
    3.2720    9.0310   -0.8650 B   0  0  0  0  0  0  0  0  0  0  0  0
    5.5030    7.8430    0.0300 C   0  0  0  0  0  0  0  0  0  0  0  0
    4.7630    9.9510   -0.7280 C   0  0  0  0  0  0  0  0  0  0  0  0
    6.3780    6.9480    0.5360 N   0  0  0  0  0  0  0  0  0  0  0  0
    5.8840    9.1650   -0.2310 C   0  0  0  0  0  0  0  0  0  0  0  0
    4.8450   11.3550   -1.0600 C   0  0  0  0  0  0  0  0  0  0  0  0
    7.6410    7.3820    0.7300 C   0  0  0  0  0  0  0  0  0  0  0  0
    7.1500    9.6020   -0.0650 N   0  0  0  0  0  0  0  0  0  0  0  0
    5.7900   12.2210   -0.5620 C   0  0  0  0  0  0  0  0  0  0  0  0
    3.7360   12.1550   -2.1670 S   0  0  0  0  0  0  0  0  0  0  0  0
    8.0280    8.7010    0.4200 C   0  0  0  0  0  0  0  0  0  0  0  0
    5.6420   13.5430   -1.0750 C   0  0  0  0  0  0  0  0  0  0  0  0
    4.5940   13.6770   -1.9530 C   0  0  0  0  0  0  0  0  0  0  0  0
   -0.0160   -1.1400    0.5260 H   0  0  0  0  0  0  0  0  0  0  0  0
    0.2890    0.1950    2.6340 H   0  0  0  0  0  0  0  0  0  0  0  0
    0.6990   -0.1330   -1.6630 H   0  0  0  0  0  0  0  0  0  0  0  0
    1.3010    2.4860    2.4560 H   0  0  0  0  0  0  0  0  0  0  0  0
    5.1430    4.9910    0.1260 H   0  0  0  0  0  0  0  0  0  0  0  0
    8.3530    6.6620    1.1310 H   0  0  0  0  0  0  0  0  0  0  0  0
    6.5560   11.9720    0.1600 H   0  0  0  0  0  0  0  0  0  0  0  0
    9.0520    9.0400    0.5690 H   0  0  0  0  0  0  0  0  0  0  0  0
    6.2970   14.3610   -0.7910 H   0  0  0  0  0  0  0  0  0  0  0  0
    4.2640   14.5610   -2.4810 H   0  0  0  0  0  0  0  0  0  0  0  0
  1 30  1  0  0  0  0
  1  2  2  0  0  0  0
  2 31  1  0  0  0  0
  3  1  1  0  0  0  0
  4  2  1  0  0  0  0
  4 33  1  0  0  0  0
  5  3  2  0  0  0  0
  5  6  1  0  0  0  0
  6  4  2  0  0  0  0
  7  8  2  0  0  0  0
  7  6  1  0  0  0  0
  9  7  1  0  0  0  0
 10 34  1  0  0  0  0
 10  8  1  0  0  0  0
 11  9  2  0  0  0  0
 12 13  1  0  0  0  0
 12  9  1  0  0  0  0
 13 10  2  0  0  0  0
 14 11  1  0  0  0  0
 15 14  1  0  0  0  0
 15 12  2  0  0  0  0
 16 13  1  1  0  0  0
 16 18  1  0  0  0  0
 17 19  2  0  0  0  0
 17 16  1  0  0  0  0
 18 20  2  0  0  0  0
 19 21  1  0  0  0  0
 20 23  1  0  0  0  0
 21 24  2  0  0  0  0
 21 18  1  0  0  0  0
 22 19  1  0  0  0  0
 22 25  2  0  0  0  0
 23 35  1  0  0  0  0
 24 27  1  0  0  0  0
 25 36  1  0  0  0  0
 26 29  1  0  0  0  0
 26 22  1  0  0  0  0
 27 37  1  0  0  0  0
 27 23  2  0  0  0  0
 28 38  1  0  0  0  0
 28 25  1  0  0  0  0
 29 28  2  0  0  0  0
 32  3  1  0  0  0  0
 39 29  1  0  0  0  0
M  END
$$$$
scan_sander_basal/min_pdbs/min_pdb_C169_105.pdb
 OpenBabel09051718393D

 39 44  0  0  1  0  0  0  0  0999 V2000
    0.4710   -0.1710    0.5120 C   0  0  0  0  0  0  0  0  0  0  0  0
    0.3700    0.6880    1.6150 C   0  0  0  0  0  0  0  0  0  0  0  0
    1.1150    0.2860   -0.6490 C   0  0  0  0  0  0  0  0  0  0  0  0
    0.9230    1.9720    1.5080 C   0  0  0  0  0  0  0  0  0  0  0  0
    1.6430    1.5200   -0.7480 N   0  0  0  0  0  0  0  0  0  0  0  0
    1.5600    2.3620    0.3050 C   0  0  0  0  0  0  0  0  0  0  0  0
    2.1560    3.7230    0.1430 C   0  0  0  0  0  0  0  0  0  0  0  0
    3.4980    3.8270    0.1940 N   0  0  0  0  0  0  0  0  0  0  0  0
    1.3640    4.8750   -0.0450 C   0  0  0  0  0  0  0  0  0  0  0  0
    4.0820    5.0360    0.0570 C   0  0  0  0  0  0  0  0  0  0  0  0
    0.0140    4.8650   -0.0850 N   0  0  0  0  0  0  0  0  0  0  0  0
    1.9650    6.1200   -0.1960 C   0  0  0  0  0  0  0  0  0  0  0  0
    3.3810    6.2500   -0.1570 C   0  0  0  0  0  0  0  0  0  0  0  0
   -0.4080    6.4270   -0.3100 S   0  0  0  0  0  0  0  0  0  0  0  0
    1.0720    7.1240   -0.3500 N   0  0  0  0  0  0  0  0  0  0  0  0
    4.0990    7.5550   -0.2920 C   0  0  1  0  0  0  0  0  0  0  0  0
    3.2630    9.0310   -0.8420 B   0  0  0  0  0  0  0  0  0  0  0  0
    5.5150    7.8410   -0.0040 C   0  0  0  0  0  0  0  0  0  0  0  0
    4.7530    9.9560   -0.7180 C   0  0  0  0  0  0  0  0  0  0  0  0
    6.4040    6.9420    0.4690 N   0  0  0  0  0  0  0  0  0  0  0  0
    5.8860    9.1670   -0.2550 C   0  0  0  0  0  0  0  0  0  0  0  0
    4.8220   11.3650   -1.0280 C   0  0  0  0  0  0  0  0  0  0  0  0
    7.6700    7.3780    0.6430 C   0  0  0  0  0  0  0  0  0  0  0  0
    7.1550    9.6070   -0.1110 N   0  0  0  0  0  0  0  0  0  0  0  0
    5.7740   12.2270   -0.5350 C   0  0  0  0  0  0  0  0  0  0  0  0
    3.6900   12.1790   -2.1020 S   0  0  0  0  0  0  0  0  0  0  0  0
    8.0460    8.7020    0.3420 C   0  0  0  0  0  0  0  0  0  0  0  0
    5.6110   13.5570   -1.0230 C   0  0  0  0  0  0  0  0  0  0  0  0
    4.5460   13.7010   -1.8780 C   0  0  0  0  0  0  0  0  0  0  0  0
    0.0580   -1.1740    0.5520 H   0  0  0  0  0  0  0  0  0  0  0  0
   -0.1220    0.3670    2.5300 H   0  0  0  0  0  0  0  0  0  0  0  0
    1.2110   -0.3540   -1.5250 H   0  0  0  0  0  0  0  0  0  0  0  0
    0.8640    2.6670    2.3390 H   0  0  0  0  0  0  0  0  0  0  0  0
    5.1630    4.9860    0.0730 H   0  0  0  0  0  0  0  0  0  0  0  0
    8.3930    6.6550    1.0170 H   0  0  0  0  0  0  0  0  0  0  0  0
    6.5540   11.9700    0.1690 H   0  0  0  0  0  0  0  0  0  0  0  0
    9.0720    9.0430    0.4730 H   0  0  0  0  0  0  0  0  0  0  0  0
    6.2670   14.3730   -0.7380 H   0  0  0  0  0  0  0  0  0  0  0  0
    4.2010   14.5920   -2.3860 H   0  0  0  0  0  0  0  0  0  0  0  0
  1 30  1  0  0  0  0
  1  2  2  0  0  0  0
  2 31  1  0  0  0  0
  3  1  1  0  0  0  0
  4  2  1  0  0  0  0
  4 33  1  0  0  0  0
  5  3  2  0  0  0  0
  5  6  1  0  0  0  0
  6  4  2  0  0  0  0
  7  8  2  0  0  0  0
  7  6  1  0  0  0  0
  9  7  1  0  0  0  0
 10 34  1  0  0  0  0
 10  8  1  0  0  0  0
 11  9  2  0  0  0  0
 12 13  1  0  0  0  0
 12  9  1  0  0  0  0
 13 10  2  0  0  0  0
 14 11  1  0  0  0  0
 15 14  1  0  0  0  0
 15 12  2  0  0  0  0
 16 13  1  1  0  0  0
 16 18  1  0  0  0  0
 17 19  2  0  0  0  0
 17 16  1  0  0  0  0
 18 20  2  0  0  0  0
 19 21  1  0  0  0  0
 20 23  1  0  0  0  0
 21 24  2  0  0  0  0
 21 18  1  0  0  0  0
 22 19  1  0  0  0  0
 22 25  2  0  0  0  0
 23 35  1  0  0  0  0
 24 27  1  0  0  0  0
 25 36  1  0  0  0  0
 26 29  1  0  0  0  0
 26 22  1  0  0  0  0
 27 37  1  0  0  0  0
 27 23  2  0  0  0  0
 28 38  1  0  0  0  0
 28 25  1  0  0  0  0
 29 28  2  0  0  0  0
 32  3  1  0  0  0  0
 39 29  1  0  0  0  0
M  END
$$$$
scan_sander_basal/min_pdbs/min_pdb_C169_120.pdb
 OpenBabel09051718393D

 39 44  0  0  1  0  0  0  0  0999 V2000
    0.5270   -0.2000    0.5460 C   0  0  0  0  0  0  0  0  0  0  0  0
    0.1760    0.7520    1.5140 C   0  0  0  0  0  0  0  0  0  0  0  0
    1.3920    0.1760   -0.4930 C   0  0  0  0  0  0  0  0  0  0  0  0
    0.7090    2.0430    1.3970 C   0  0  0  0  0  0  0  0  0  0  0  0
    1.9000    1.4180   -0.6020 N   0  0  0  0  0  0  0  0  0  0  0  0
    1.5770    2.3510    0.3210 C   0  0  0  0  0  0  0  0  0  0  0  0
    2.1670    3.7180    0.1530 C   0  0  0  0  0  0  0  0  0  0  0  0
    3.5100    3.8240    0.1670 N   0  0  0  0  0  0  0  0  0  0  0  0
    1.3720    4.8730   -0.0080 C   0  0  0  0  0  0  0  0  0  0  0  0
    4.0920    5.0330    0.0250 C   0  0  0  0  0  0  0  0  0  0  0  0
    0.0210    4.8670   -0.0220 N   0  0  0  0  0  0  0  0  0  0  0  0
    1.9700    6.1200   -0.1650 C   0  0  0  0  0  0  0  0  0  0  0  0
    3.3870    6.2500   -0.1590 C   0  0  0  0  0  0  0  0  0  0  0  0
   -0.4040    6.4310   -0.2250 S   0  0  0  0  0  0  0  0  0  0  0  0
    1.0750    7.1250   -0.2920 N   0  0  0  0  0  0  0  0  0  0  0  0
    4.1010    7.5560   -0.3000 C   0  0  1  0  0  0  0  0  0  0  0  0
    3.2540    9.0380   -0.8140 B   0  0  0  0  0  0  0  0  0  0  0  0
    5.5250    7.8380   -0.0430 C   0  0  0  0  0  0  0  0  0  0  0  0
    4.7440    9.9630   -0.7080 C   0  0  0  0  0  0  0  0  0  0  0  0
    6.4260    6.9330    0.3930 N   0  0  0  0  0  0  0  0  0  0  0  0
    5.8890    9.1680   -0.2850 C   0  0  0  0  0  0  0  0  0  0  0  0
    4.8050   11.3770   -0.9960 C   0  0  0  0  0  0  0  0  0  0  0  0
    7.6960    7.3670    0.5390 C   0  0  0  0  0  0  0  0  0  0  0  0
    7.1610    9.6060   -0.1680 N   0  0  0  0  0  0  0  0  0  0  0  0
    5.7670   12.2320   -0.5100 C   0  0  0  0  0  0  0  0  0  0  0  0
    3.6480   12.2080   -2.0300 S   0  0  0  0  0  0  0  0  0  0  0  0
    8.0640    8.6950    0.2490 C   0  0  0  0  0  0  0  0  0  0  0  0
    5.5910   13.5690   -0.9700 C   0  0  0  0  0  0  0  0  0  0  0  0
    4.5070   13.7270   -1.7980 C   0  0  0  0  0  0  0  0  0  0  0  0
    0.1380   -1.2120    0.5980 H   0  0  0  0  0  0  0  0  0  0  0  0
   -0.4920    0.4950    2.3320 H   0  0  0  0  0  0  0  0  0  0  0  0
    1.6870   -0.5360   -1.2630 H   0  0  0  0  0  0  0  0  0  0  0  0
    0.4590    2.8070    2.1270 H   0  0  0  0  0  0  0  0  0  0  0  0
    5.1730    4.9820    0.0130 H   0  0  0  0  0  0  0  0  0  0  0  0
    8.4290    6.6390    0.8840 H   0  0  0  0  0  0  0  0  0  0  0  0
    6.5630   11.9630    0.1720 H   0  0  0  0  0  0  0  0  0  0  0  0
    9.0930    9.0350    0.3570 H   0  0  0  0  0  0  0  0  0  0  0  0
    6.2530   14.3810   -0.6860 H   0  0  0  0  0  0  0  0  0  0  0  0
    4.1500   14.6260   -2.2820 H   0  0  0  0  0  0  0  0  0  0  0  0
  1 30  1  0  0  0  0
  1  2  2  0  0  0  0
  2 31  1  0  0  0  0
  3  1  1  0  0  0  0
  4  2  1  0  0  0  0
  4 33  1  0  0  0  0
  5  3  2  0  0  0  0
  5  6  1  0  0  0  0
  6  4  2  0  0  0  0
  7  8  2  0  0  0  0
  7  6  1  0  0  0  0
  9  7  1  0  0  0  0
 10  8  1  0  0  0  0
 11  9  2  0  0  0  0
 12 13  1  0  0  0  0
 12  9  1  0  0  0  0
 13 10  2  0  0  0  0
 14 11  1  0  0  0  0
 15 14  1  0  0  0  0
 15 12  2  0  0  0  0
 16 13  1  1  0  0  0
 16 18  1  0  0  0  0
 17 19  2  0  0  0  0
 17 16  1  0  0  0  0
 18 20  2  0  0  0  0
 19 21  1  0  0  0  0
 20 23  1  0  0  0  0
 21 24  2  0  0  0  0
 21 18  1  0  0  0  0
 22 19  1  0  0  0  0
 22 25  2  0  0  0  0
 23 35  1  0  0  0  0
 24 27  1  0  0  0  0
 25 36  1  0  0  0  0
 26 29  1  0  0  0  0
 26 22  1  0  0  0  0
 27 37  1  0  0  0  0
 27 23  2  0  0  0  0
 28 38  1  0  0  0  0
 28 25  1  0  0  0  0
 29 28  2  0  0  0  0
 32  3  1  0  0  0  0
 34 10  1  0  0  0  0
 39 29  1  0  0  0  0
M  END
$$$$
scan_sander_basal/min_pdbs/min_pdb_C169_135.pdb
 OpenBabel09051718393D

 39 44  0  0  1  0  0  0  0  0999 V2000
    0.5970   -0.2410    0.5480 C   0  0  0  0  0  0  0  0  0  0  0  0
    0.0290    0.7550    1.3530 C   0  0  0  0  0  0  0  0  0  0  0  0
    1.6390    0.1070   -0.3250 C   0  0  0  0  0  0  0  0  0  0  0  0
    0.5280    2.0610    1.2460 C   0  0  0  0  0  0  0  0  0  0  0  0
    2.1130    1.3630   -0.4240 N   0  0  0  0  0  0  0  0  0  0  0  0
    1.5810    2.3450    0.3390 C   0  0  0  0  0  0  0  0  0  0  0  0
    2.1550    3.7260    0.1820 C   0  0  0  0  0  0  0  0  0  0  0  0
    3.4990    3.8350    0.1390 N   0  0  0  0  0  0  0  0  0  0  0  0
    1.3590    4.8910    0.0750 C   0  0  0  0  0  0  0  0  0  0  0  0
    4.0800    5.0440    0.0020 C   0  0  0  0  0  0  0  0  0  0  0  0
    0.0080    4.8960    0.0970 N   0  0  0  0  0  0  0  0  0  0  0  0
    1.9570    6.1390   -0.0790 C   0  0  0  0  0  0  0  0  0  0  0  0
    3.3740    6.2660   -0.1270 C   0  0  0  0  0  0  0  0  0  0  0  0
   -0.4150    6.4650   -0.0580 S   0  0  0  0  0  0  0  0  0  0  0  0
    1.0650    7.1520   -0.1570 N   0  0  0  0  0  0  0  0  0  0  0  0
    4.0880    7.5720   -0.2650 C   0  0  1  0  0  0  0  0  0  0  0  0
    3.2300    9.0690   -0.7120 B   0  0  0  0  0  0  0  0  0  0  0  0
    5.5220    7.8410   -0.0590 C   0  0  0  0  0  0  0  0  0  0  0  0
    4.7340    9.9780   -0.6750 C   0  0  0  0  0  0  0  0  0  0  0  0
    6.4310    6.9270    0.3420 N   0  0  0  0  0  0  0  0  0  0  0  0
    5.8880    9.1710   -0.3030 C   0  0  0  0  0  0  0  0  0  0  0  0
    4.7960   11.3920   -0.9670 C   0  0  0  0  0  0  0  0  0  0  0  0
    7.7080    7.3500    0.4470 C   0  0  0  0  0  0  0  0  0  0  0  0
    7.1660    9.5990   -0.2260 N   0  0  0  0  0  0  0  0  0  0  0  0
    5.7870   12.2380   -0.5260 C   0  0  0  0  0  0  0  0  0  0  0  0
    3.6010   12.2320   -1.9470 S   0  0  0  0  0  0  0  0  0  0  0  0
    8.0760    8.6780    0.1530 C   0  0  0  0  0  0  0  0  0  0  0  0
    5.6040   13.5760   -0.9820 C   0  0  0  0  0  0  0  0  0  0  0  0
    4.4850   13.7430   -1.7600 C   0  0  0  0  0  0  0  0  0  0  0  0
    0.2420   -1.2660    0.5980 H   0  0  0  0  0  0  0  0  0  0  0  0
   -0.7770    0.5210    2.0440 H   0  0  0  0  0  0  0  0  0  0  0  0
    2.1080   -0.6390   -0.9660 H   0  0  0  0  0  0  0  0  0  0  0  0
    0.1130    2.8510    1.8640 H   0  0  0  0  0  0  0  0  0  0  0  0
    5.1600    4.9900   -0.0570 H   0  0  0  0  0  0  0  0  0  0  0  0
    8.4460    6.6140    0.7620 H   0  0  0  0  0  0  0  0  0  0  0  0
    6.6110   11.9620    0.1190 H   0  0  0  0  0  0  0  0  0  0  0  0
    9.1100    9.0090    0.2290 H   0  0  0  0  0  0  0  0  0  0  0  0
    6.2870   14.3810   -0.7300 H   0  0  0  0  0  0  0  0  0  0  0  0
    4.1160   14.6450   -2.2290 H   0  0  0  0  0  0  0  0  0  0  0  0
  1 30  1  0  0  0  0
  1  2  2  0  0  0  0
  2 31  1  0  0  0  0
  3  1  1  0  0  0  0
  4  2  1  0  0  0  0
  4 33  1  0  0  0  0
  5  3  2  0  0  0  0
  5  6  1  0  0  0  0
  6  4  2  0  0  0  0
  7  6  1  0  0  0  0
  8  7  2  0  0  0  0
  9 11  2  0  0  0  0
  9  7  1  0  0  0  0
 10  8  1  0  0  0  0
 12  9  1  0  0  0  0
 13 12  1  0  0  0  0
 13 10  2  0  0  0  0
 14 11  1  0  0  0  0
 15 12  2  0  0  0  0
 15 14  1  0  0  0  0
 16 13  1  1  0  0  0
 16 18  1  0  0  0  0
 17 19  2  0  0  0  0
 17 16  1  0  0  0  0
 18 20  2  0  0  0  0
 19 21  1  0  0  0  0
 20 23  1  0  0  0  0
 21 24  2  0  0  0  0
 21 18  1  0  0  0  0
 22 19  1  0  0  0  0
 22 25  2  0  0  0  0
 23 35  1  0  0  0  0
 24 27  1  0  0  0  0
 25 36  1  0  0  0  0
 26 29  1  0  0  0  0
 26 22  1  0  0  0  0
 27 37  1  0  0  0  0
 27 23  2  0  0  0  0
 28 38  1  0  0  0  0
 28 25  1  0  0  0  0
 29 28  2  0  0  0  0
 32  3  1  0  0  0  0
 34 10  1  0  0  0  0
 39 29  1  0  0  0  0
M  END
$$$$
scan_sander_basal/min_pdbs/min_pdb_C169_150.pdb
 OpenBabel09051718393D

 39 44  0  0  1  0  0  0  0  0999 V2000
    0.6760   -0.2860    0.5830 C   0  0  0  0  0  0  0  0  0  0  0  0
   -0.0830    0.7290    1.1780 C   0  0  0  0  0  0  0  0  0  0  0  0
    1.8580    0.0630   -0.0870 C   0  0  0  0  0  0  0  0  0  0  0  0
    0.3700    2.0520    1.0720 C   0  0  0  0  0  0  0  0  0  0  0  0
    2.2860    1.3340   -0.1850 N   0  0  0  0  0  0  0  0  0  0  0  0
    1.5700    2.3420    0.3680 C   0  0  0  0  0  0  0  0  0  0  0  0
    2.1250    3.7410    0.2080 C   0  0  0  0  0  0  0  0  0  0  0  0
    3.4680    3.8520    0.1070 N   0  0  0  0  0  0  0  0  0  0  0  0
    1.3360    4.9180    0.1410 C   0  0  0  0  0  0  0  0  0  0  0  0
    4.0540    5.0570   -0.0330 C   0  0  0  0  0  0  0  0  0  0  0  0
   -0.0150    4.9450    0.1900 N   0  0  0  0  0  0  0  0  0  0  0  0
    1.9400    6.1650   -0.0180 C   0  0  0  0  0  0  0  0  0  0  0  0
    3.3540    6.2850   -0.1150 C   0  0  0  0  0  0  0  0  0  0  0  0
   -0.4270    6.5200    0.0710 S   0  0  0  0  0  0  0  0  0  0  0  0
    1.0580    7.1880   -0.0590 N   0  0  0  0  0  0  0  0  0  0  0  0
    4.0740    7.5880   -0.2570 C   0  0  1  0  0  0  0  0  0  0  0  0
    3.2150    9.1000   -0.6460 B   0  0  0  0  0  0  0  0  0  0  0  0
    5.5170    7.8410   -0.0970 C   0  0  0  0  0  0  0  0  0  0  0  0
    4.7280    9.9940   -0.6550 C   0  0  0  0  0  0  0  0  0  0  0  0
    6.4300    6.9140    0.2600 N   0  0  0  0  0  0  0  0  0  0  0  0
    5.8870    9.1710   -0.3350 C   0  0  0  0  0  0  0  0  0  0  0  0
    4.7940   11.4100   -0.9320 C   0  0  0  0  0  0  0  0  0  0  0  0
    7.7140    7.3230    0.3270 C   0  0  0  0  0  0  0  0  0  0  0  0
    7.1710    9.5860   -0.2970 N   0  0  0  0  0  0  0  0  0  0  0  0
    5.8100   12.2410   -0.5190 C   0  0  0  0  0  0  0  0  0  0  0  0
    3.5720   12.2740   -1.8580 S   0  0  0  0  0  0  0  0  0  0  0  0
    8.0840    8.6520    0.0380 C   0  0  0  0  0  0  0  0  0  0  0  0
    5.6230   13.5870   -0.9520 C   0  0  0  0  0  0  0  0  0  0  0  0
    4.4770   13.7740   -1.6860 C   0  0  0  0  0  0  0  0  0  0  0  0
    0.3630   -1.3240    0.6420 H   0  0  0  0  0  0  0  0  0  0  0  0
   -0.9990    0.4960    1.7160 H   0  0  0  0  0  0  0  0  0  0  0  0
    2.4810   -0.6970   -0.5580 H   0  0  0  0  0  0  0  0  0  0  0  0
   -0.1950    2.8410    1.5530 H   0  0  0  0  0  0  0  0  0  0  0  0
    5.1300    4.9950   -0.1350 H   0  0  0  0  0  0  0  0  0  0  0  0
    8.4560    6.5770    0.6070 H   0  0  0  0  0  0  0  0  0  0  0  0
    6.6540   11.9510    0.0910 H   0  0  0  0  0  0  0  0  0  0  0  0
    9.1240    8.9720    0.0830 H   0  0  0  0  0  0  0  0  0  0  0  0
    6.3230   14.3820   -0.7170 H   0  0  0  0  0  0  0  0  0  0  0  0
    4.1000   14.6850   -2.1310 H   0  0  0  0  0  0  0  0  0  0  0  0
  1 30  1  0  0  0  0
  1  2  2  0  0  0  0
  2 31  1  0  0  0  0
  3  1  1  0  0  0  0
  4  2  1  0  0  0  0
  4 33  1  0  0  0  0
  5  3  2  0  0  0  0
  5  6  1  0  0  0  0
  6  4  2  0  0  0  0
  7  6  1  0  0  0  0
  8  7  2  0  0  0  0
  9 11  2  0  0  0  0
  9  7  1  0  0  0  0
 10  8  1  0  0  0  0
 12  9  1  0  0  0  0
 13 10  2  0  0  0  0
 13 12  1  0  0  0  0
 14 11  1  0  0  0  0
 15 12  2  0  0  0  0
 15 14  1  0  0  0  0
 16 13  1  1  0  0  0
 16 18  1  0  0  0  0
 17 16  1  0  0  0  0
 18 20  2  0  0  0  0
 19 17  2  0  0  0  0
 19 21  1  0  0  0  0
 20 23  1  0  0  0  0
 21 24  2  0  0  0  0
 21 18  1  0  0  0  0
 22 19  1  0  0  0  0
 22 25  2  0  0  0  0
 23 35  1  0  0  0  0
 24 27  1  0  0  0  0
 25 36  1  0  0  0  0
 26 29  1  0  0  0  0
 26 22  1  0  0  0  0
 27 37  1  0  0  0  0
 27 23  2  0  0  0  0
 28 38  1  0  0  0  0
 28 25  1  0  0  0  0
 29 28  2  0  0  0  0
 32  3  1  0  0  0  0
 34 10  1  0  0  0  0
 39 29  1  0  0  0  0
M  END
$$$$
scan_sander_basal/min_pdbs/min_pdb_C169_165.pdb
 OpenBabel09051718393D

 39 44  0  0  1  0  0  0  0  0999 V2000
    0.7510   -0.3260    0.6130 C   0  0  0  0  0  0  0  0  0  0  0  0
   -0.1580    0.6770    0.9680 C   0  0  0  0  0  0  0  0  0  0  0  0
    2.0260    0.0520    0.1750 C   0  0  0  0  0  0  0  0  0  0  0  0
    0.2460    2.0170    0.8610 C   0  0  0  0  0  0  0  0  0  0  0  0
    2.4040    1.3390    0.0750 N   0  0  0  0  0  0  0  0  0  0  0  0
    1.5510    2.3440    0.3950 C   0  0  0  0  0  0  0  0  0  0  0  0
    2.0880    3.7590    0.2360 C   0  0  0  0  0  0  0  0  0  0  0  0
    3.4280    3.8730    0.0880 N   0  0  0  0  0  0  0  0  0  0  0  0
    1.3090    4.9510    0.2170 C   0  0  0  0  0  0  0  0  0  0  0  0
    4.0210    5.0730   -0.0540 C   0  0  0  0  0  0  0  0  0  0  0  0
   -0.0370    5.0040    0.3180 N   0  0  0  0  0  0  0  0  0  0  0  0
    1.9220    6.1960    0.0560 C   0  0  0  0  0  0  0  0  0  0  0  0
    3.3320    6.3060   -0.0910 C   0  0  0  0  0  0  0  0  0  0  0  0
   -0.4330    6.5840    0.2430 S   0  0  0  0  0  0  0  0  0  0  0  0
    1.0540    7.2320    0.0660 N   0  0  0  0  0  0  0  0  0  0  0  0
    4.0600    7.6040   -0.2400 C   0  0  1  0  0  0  0  0  0  0  0  0
    3.2040    9.1320   -0.5750 B   0  0  0  0  0  0  0  0  0  0  0  0
    5.5100    7.8410   -0.1300 C   0  0  0  0  0  0  0  0  0  0  0  0
    4.7260   10.0080   -0.6340 C   0  0  0  0  0  0  0  0  0  0  0  0
    6.4250    6.9000    0.1830 N   0  0  0  0  0  0  0  0  0  0  0  0
    5.8860    9.1690   -0.3670 C   0  0  0  0  0  0  0  0  0  0  0  0
    4.7980   11.4270   -0.9010 C   0  0  0  0  0  0  0  0  0  0  0  0
    7.7150    7.2950    0.2090 C   0  0  0  0  0  0  0  0  0  0  0  0
    7.1750    9.5700   -0.3700 N   0  0  0  0  0  0  0  0  0  0  0  0
    5.8380   12.2430   -0.5210 C   0  0  0  0  0  0  0  0  0  0  0  0
    3.5500   12.3120   -1.7700 S   0  0  0  0  0  0  0  0  0  0  0  0
    8.0900    8.6220   -0.0790 C   0  0  0  0  0  0  0  0  0  0  0  0
    5.6500   13.5940   -0.9340 C   0  0  0  0  0  0  0  0  0  0  0  0
    4.4790   13.8000   -1.6210 C   0  0  0  0  0  0  0  0  0  0  0  0
    0.4800   -1.3750    0.6830 H   0  0  0  0  0  0  0  0  0  0  0  0
   -1.1530    0.4240    1.3250 H   0  0  0  0  0  0  0  0  0  0  0  0
    2.7690   -0.6950   -0.1060 H   0  0  0  0  0  0  0  0  0  0  0  0
   -0.4540    2.7820    1.1660 H   0  0  0  0  0  0  0  0  0  0  0  0
    5.0920    5.0010   -0.1970 H   0  0  0  0  0  0  0  0  0  0  0  0
    8.4580    6.5370    0.4540 H   0  0  0  0  0  0  0  0  0  0  0  0
    6.7020   11.9370    0.0540 H   0  0  0  0  0  0  0  0  0  0  0  0
    9.1340    8.9310   -0.0670 H   0  0  0  0  0  0  0  0  0  0  0  0
    6.3680   14.3790   -0.7200 H   0  0  0  0  0  0  0  0  0  0  0  0
    4.0950   14.7200   -2.0430 H   0  0  0  0  0  0  0  0  0  0  0  0
  1 30  1  0  0  0  0
  1  2  2  0  0  0  0
  2 31  1  0  0  0  0
  3  1  1  0  0  0  0
  4  2  1  0  0  0  0
  4 33  1  0  0  0  0
  5  3  2  0  0  0  0
  5  6  1  0  0  0  0
  6  4  2  0  0  0  0
  7  6  1  0  0  0  0
  8  7  2  0  0  0  0
  9  7  1  0  0  0  0
  9 11  2  0  0  0  0
 10  8  1  0  0  0  0
 12 15  2  0  0  0  0
 12  9  1  0  0  0  0
 13 10  2  0  0  0  0
 13 12  1  0  0  0  0
 14 11  1  0  0  0  0
 15 14  1  0  0  0  0
 16 18  1  0  0  0  0
 16 13  1  1  0  0  0
 17 16  1  0  0  0  0
 18 20  2  0  0  0  0
 19 17  2  0  0  0  0
 19 21  1  0  0  0  0
 20 23  1  0  0  0  0
 21 18  1  0  0  0  0
 22 19  1  0  0  0  0
 22 25  2  0  0  0  0
 23 35  1  0  0  0  0
 24 21  2  0  0  0  0
 24 27  1  0  0  0  0
 25 36  1  0  0  0  0
 26 29  1  0  0  0  0
 26 22  1  0  0  0  0
 27 37  1  0  0  0  0
 27 23  2  0  0  0  0
 28 38  1  0  0  0  0
 28 25  1  0  0  0  0
 29 28  2  0  0  0  0
 32  3  1  0  0  0  0
 34 10  1  0  0  0  0
 39 29  1  0  0  0  0
M  END
$$$$
scan_sander_basal/min_pdbs/min_pdb_C169_180.pdb
 OpenBabel09051718393D

 39 44  0  0  1  0  0  0  0  0999 V2000
    0.7860   -0.3380    0.6850 C   0  0  0  0  0  0  0  0  0  0  0  0
   -0.2060    0.6460    0.7400 C   0  0  0  0  0  0  0  0  0  0  0  0
    2.1140    0.0630    0.4980 C   0  0  0  0  0  0  0  0  0  0  0  0
    0.1720    1.9910    0.6050 C   0  0  0  0  0  0  0  0  0  0  0  0
    2.4660    1.3540    0.3710 N   0  0  0  0  0  0  0  0  0  0  0  0
    1.5390    2.3450    0.4170 C   0  0  0  0  0  0  0  0  0  0  0  0
    2.0710    3.7670    0.2560 C   0  0  0  0  0  0  0  0  0  0  0  0
    3.4090    3.8790    0.0870 N   0  0  0  0  0  0  0  0  0  0  0  0
    1.3020    4.9670    0.2690 C   0  0  0  0  0  0  0  0  0  0  0  0
    4.0080    5.0750   -0.0660 C   0  0  0  0  0  0  0  0  0  0  0  0
   -0.0360    5.0380    0.4420 N   0  0  0  0  0  0  0  0  0  0  0  0
    1.9210    6.2090    0.1000 C   0  0  0  0  0  0  0  0  0  0  0  0
    3.3260    6.3120   -0.0840 C   0  0  0  0  0  0  0  0  0  0  0  0
   -0.4190    6.6220    0.3950 S   0  0  0  0  0  0  0  0  0  0  0  0
    1.0650    7.2540    0.1550 N   0  0  0  0  0  0  0  0  0  0  0  0
    4.0580    7.6060   -0.2530 C   0  0  1  0  0  0  0  0  0  0  0  0
    3.2010    9.1390   -0.5650 B   0  0  0  0  0  0  0  0  0  0  0  0
    5.5120    7.8350   -0.1820 C   0  0  0  0  0  0  0  0  0  0  0  0
    4.7240   10.0130   -0.6350 C   0  0  0  0  0  0  0  0  0  0  0  0
    6.4330    6.8850    0.0870 N   0  0  0  0  0  0  0  0  0  0  0  0
    5.8870    9.1650   -0.4110 C   0  0  0  0  0  0  0  0  0  0  0  0
    4.7950   11.4360   -0.8720 C   0  0  0  0  0  0  0  0  0  0  0  0
    7.7250    7.2750    0.0790 C   0  0  0  0  0  0  0  0  0  0  0  0
    7.1780    9.5600   -0.4490 N   0  0  0  0  0  0  0  0  0  0  0  0
    5.8460   12.2390   -0.4940 C   0  0  0  0  0  0  0  0  0  0  0  0
    3.5340   12.3460   -1.6960 S   0  0  0  0  0  0  0  0  0  0  0  0
    8.0960    8.6050   -0.2000 C   0  0  0  0  0  0  0  0  0  0  0  0
    5.6550   13.6000   -0.8720 C   0  0  0  0  0  0  0  0  0  0  0  0
    4.4710   13.8270   -1.5300 C   0  0  0  0  0  0  0  0  0  0  0  0
    0.5350   -1.3900    0.7840 H   0  0  0  0  0  0  0  0  0  0  0  0
   -1.2490    0.3750    0.8830 H   0  0  0  0  0  0  0  0  0  0  0  0
    2.9210   -0.6670    0.4490 H   0  0  0  0  0  0  0  0  0  0  0  0
   -0.6100    2.7330    0.6500 H   0  0  0  0  0  0  0  0  0  0  0  0
    5.0750    4.9950   -0.2300 H   0  0  0  0  0  0  0  0  0  0  0  0
    8.4710    6.5100    0.2890 H   0  0  0  0  0  0  0  0  0  0  0  0
    6.7200   11.9170    0.0560 H   0  0  0  0  0  0  0  0  0  0  0  0
    9.1420    8.9090   -0.2160 H   0  0  0  0  0  0  0  0  0  0  0  0
    6.3800   14.3790   -0.6530 H   0  0  0  0  0  0  0  0  0  0  0  0
    4.0830   14.7570   -1.9230 H   0  0  0  0  0  0  0  0  0  0  0  0
  1  2  1  0  0  0  0
  1 30  1  0  0  0  0
  2 31  1  0  0  0  0
  3  1  2  0  0  0  0
  4 33  1  0  0  0  0
  4  2  2  0  0  0  0
  5  6  2  0  0  0  0
  5  3  1  0  0  0  0
  6  4  1  0  0  0  0
  7  9  1  0  0  0  0
  7  6  1  0  0  0  0
  8  7  2  0  0  0  0
  9 11  2  0  0  0  0
 10  8  1  0  0  0  0
 12 15  2  0  0  0  0
 12  9  1  0  0  0  0
 13 10  2  0  0  0  0
 13 12  1  0  0  0  0
 14 11  1  0  0  0  0
 15 14  1  0  0  0  0
 16 18  1  0  0  0  0
 16 13  1  1  0  0  0
 17 16  1  0  0  0  0
 18 20  2  0  0  0  0
 19 17  2  0  0  0  0
 19 21  1  0  0  0  0
 21 18  1  0  0  0  0
 22 19  1  0  0  0  0
 22 25  2  0  0  0  0
 23 20  1  0  0  0  0
 23 35  1  0  0  0  0
 24 21  2  0  0  0  0
 24 27  1  0  0  0  0
 25 36  1  0  0  0  0
 26 29  1  0  0  0  0
 26 22  1  0  0  0  0
 27 23  2  0  0  0  0
 28 38  1  0  0  0  0
 28 25  1  0  0  0  0
 29 28  2  0  0  0  0
 32  3  1  0  0  0  0
 34 10  1  0  0  0  0
 37 27  1  0  0  0  0
 39 29  1  0  0  0  0
M  END
$$$$
scan_sander_basal/min_pdbs/min_pdb_C169_195.pdb
 OpenBabel09051718393D

 39 44  0  0  1  0  0  0  0  0999 V2000
    0.7540   -0.3190    0.6990 C   0  0  0  0  0  0  0  0  0  0  0  0
   -0.2240    0.6520    0.4570 C   0  0  0  0  0  0  0  0  0  0  0  0
    2.0920    0.0860    0.7820 C   0  0  0  0  0  0  0  0  0  0  0  0
    0.1780    1.9880    0.3140 C   0  0  0  0  0  0  0  0  0  0  0  0
    2.4680    1.3700    0.6440 N   0  0  0  0  0  0  0  0  0  0  0  0
    1.5530    2.3450    0.4190 C   0  0  0  0  0  0  0  0  0  0  0  0
    2.0940    3.7600    0.2790 C   0  0  0  0  0  0  0  0  0  0  0  0
    3.4300    3.8700    0.0950 N   0  0  0  0  0  0  0  0  0  0  0  0
    1.3270    4.9570    0.3410 C   0  0  0  0  0  0  0  0  0  0  0  0
    4.0240    5.0690   -0.0510 C   0  0  0  0  0  0  0  0  0  0  0  0
   -0.0000    5.0200    0.5880 N   0  0  0  0  0  0  0  0  0  0  0  0
    1.9410    6.2020    0.1830 C   0  0  0  0  0  0  0  0  0  0  0  0
    3.3410    6.3070   -0.0390 C   0  0  0  0  0  0  0  0  0  0  0  0
   -0.3840    6.6050    0.5910 S   0  0  0  0  0  0  0  0  0  0  0  0
    1.0880    7.2450    0.2950 N   0  0  0  0  0  0  0  0  0  0  0  0
    4.0660    7.6030   -0.2140 C   0  0  1  0  0  0  0  0  0  0  0  0
    3.1980    9.1370   -0.4860 B   0  0  0  0  0  0  0  0  0  0  0  0
    5.5210    7.8340   -0.1800 C   0  0  0  0  0  0  0  0  0  0  0  0
    4.7180   10.0110   -0.6080 C   0  0  0  0  0  0  0  0  0  0  0  0
    6.4490    6.8850    0.0660 N   0  0  0  0  0  0  0  0  0  0  0  0
    5.8880    9.1650   -0.4170 C   0  0  0  0  0  0  0  0  0  0  0  0
    4.7800   11.4340   -0.8530 C   0  0  0  0  0  0  0  0  0  0  0  0
    7.7400    7.2770    0.0260 C   0  0  0  0  0  0  0  0  0  0  0  0
    7.1760    9.5620   -0.4860 N   0  0  0  0  0  0  0  0  0  0  0  0
    5.8410   12.2400   -0.5120 C   0  0  0  0  0  0  0  0  0  0  0  0
    3.4930   12.3380   -1.6410 S   0  0  0  0  0  0  0  0  0  0  0  0
    8.1020    8.6070   -0.2600 C   0  0  0  0  0  0  0  0  0  0  0  0
    5.6370   13.5990   -0.8910 C   0  0  0  0  0  0  0  0  0  0  0  0
    4.4330   13.8210   -1.5130 C   0  0  0  0  0  0  0  0  0  0  0  0
    0.4850   -1.3640    0.8140 H   0  0  0  0  0  0  0  0  0  0  0  0
   -1.2720    0.3760    0.3740 H   0  0  0  0  0  0  0  0  0  0  0  0
    2.8870   -0.6360    0.9630 H   0  0  0  0  0  0  0  0  0  0  0  0
   -0.5820    2.7250    0.0950 H   0  0  0  0  0  0  0  0  0  0  0  0
    5.0880    4.9940   -0.2380 H   0  0  0  0  0  0  0  0  0  0  0  0
    8.4920    6.5130    0.2160 H   0  0  0  0  0  0  0  0  0  0  0  0
    6.7330   11.9220    0.0120 H   0  0  0  0  0  0  0  0  0  0  0  0
    9.1470    8.9130   -0.3030 H   0  0  0  0  0  0  0  0  0  0  0  0
    6.3680   14.3790   -0.6990 H   0  0  0  0  0  0  0  0  0  0  0  0
    4.0310   14.7490   -1.8980 H   0  0  0  0  0  0  0  0  0  0  0  0
  1  3  1  0  0  0  0
  1 30  1  0  0  0  0
  2  1  2  0  0  0  0
  3 32  1  0  0  0  0
  4  6  2  0  0  0  0
  4  2  1  0  0  0  0
  5  3  2  0  0  0  0
  6  5  1  0  0  0  0
  7  9  1  0  0  0  0
  7  6  1  0  0  0  0
  8  7  2  0  0  0  0
  9 11  2  0  0  0  0
 10 13  2  0  0  0  0
 10  8  1  0  0  0  0
 11 14  1  0  0  0  0
 12 15  2  0  0  0  0
 12  9  1  0  0  0  0
 13 12  1  0  0  0  0
 15 14  1  0  0  0  0
 16 18  1  0  0  0  0
 16 13  1  1  0  0  0
 17 16  1  0  0  0  0
 18 20  2  0  0  0  0
 19 17  2  0  0  0  0
 19 21  1  0  0  0  0
 21 18  1  0  0  0  0
 22 19  1  0  0  0  0
 22 25  2  0  0  0  0
 23 20  1  0  0  0  0
 23 35  1  0  0  0  0
 24 21  2  0  0  0  0
 24 27  1  0  0  0  0
 25 36  1  0  0  0  0
 26 29  1  0  0  0  0
 26 22  1  0  0  0  0
 27 23  2  0  0  0  0
 28 38  1  0  0  0  0
 28 25  1  0  0  0  0
 29 28  2  0  0  0  0
 31  2  1  0  0  0  0
 33  4  1  0  0  0  0
 34 10  1  0  0  0  0
 37 27  1  0  0  0  0
 39 29  1  0  0  0  0
M  END
$$$$
scan_sander_basal/min_pdbs/min_pdb_C169_210.pdb
 OpenBabel09051718393D

 39 44  0  0  1  0  0  0  0  0999 V2000
    0.6920   -0.2760    0.7350 C   0  0  0  0  0  0  0  0  0  0  0  0
   -0.1920    0.6700    0.2020 C   0  0  0  0  0  0  0  0  0  0  0  0
    1.9860    0.1340    1.0860 C   0  0  0  0  0  0  0  0  0  0  0  0
    0.2580    1.9890    0.0470 C   0  0  0  0  0  0  0  0  0  0  0  0
    2.4090    1.4020    0.9350 N   0  0  0  0  0  0  0  0  0  0  0  0
    1.5790    2.3450    0.4310 C   0  0  0  0  0  0  0  0  0  0  0  0
    2.1370    3.7440    0.2900 C   0  0  0  0  0  0  0  0  0  0  0  0
    3.4670    3.8490    0.0800 N   0  0  0  0  0  0  0  0  0  0  0  0
    1.3640    4.9310    0.3810 C   0  0  0  0  0  0  0  0  0  0  0  0
    4.0520    5.0540   -0.0640 C   0  0  0  0  0  0  0  0  0  0  0  0
    0.0410    4.9700    0.6560 N   0  0  0  0  0  0  0  0  0  0  0  0
    1.9670    6.1790    0.2260 C   0  0  0  0  0  0  0  0  0  0  0  0
    3.3620    6.2900   -0.0230 C   0  0  0  0  0  0  0  0  0  0  0  0
   -0.3530    6.5540    0.6890 S   0  0  0  0  0  0  0  0  0  0  0  0
    1.1070    7.2130    0.3700 N   0  0  0  0  0  0  0  0  0  0  0  0
    4.0780    7.5920   -0.1980 C   0  0  1  0  0  0  0  0  0  0  0  0
    3.1960    9.1230   -0.4340 B   0  0  0  0  0  0  0  0  0  0  0  0
    5.5320    7.8290   -0.1910 C   0  0  0  0  0  0  0  0  0  0  0  0
    4.7100   10.0050   -0.5860 C   0  0  0  0  0  0  0  0  0  0  0  0
    6.4690    6.8830    0.0290 N   0  0  0  0  0  0  0  0  0  0  0  0
    5.8870    9.1630   -0.4250 C   0  0  0  0  0  0  0  0  0  0  0  0
    4.7590   11.4290   -0.8250 C   0  0  0  0  0  0  0  0  0  0  0  0
    7.7570    7.2810   -0.0330 C   0  0  0  0  0  0  0  0  0  0  0  0
    7.1720    9.5680   -0.5170 N   0  0  0  0  0  0  0  0  0  0  0  0
    5.8240   12.2390   -0.5040 C   0  0  0  0  0  0  0  0  0  0  0  0
    3.4500   12.3310   -1.5790 S   0  0  0  0  0  0  0  0  0  0  0  0
    8.1070    8.6160   -0.3170 C   0  0  0  0  0  0  0  0  0  0  0  0
    5.6050   13.5990   -0.8720 C   0  0  0  0  0  0  0  0  0  0  0  0
    4.3860   13.8180   -1.4660 C   0  0  0  0  0  0  0  0  0  0  0  0
    0.3860   -1.3090    0.8700 H   0  0  0  0  0  0  0  0  0  0  0  0
   -1.2000    0.3870   -0.0910 H   0  0  0  0  0  0  0  0  0  0  0  0
    2.7060   -0.5720    1.4980 H   0  0  0  0  0  0  0  0  0  0  0  0
   -0.4080    2.7240   -0.3910 H   0  0  0  0  0  0  0  0  0  0  0  0
    5.1120    4.9870   -0.2730 H   0  0  0  0  0  0  0  0  0  0  0  0
    8.5170    6.5200    0.1370 H   0  0  0  0  0  0  0  0  0  0  0  0
    6.7280   11.9230   -0.0020 H   0  0  0  0  0  0  0  0  0  0  0  0
    9.1490    8.9270   -0.3770 H   0  0  0  0  0  0  0  0  0  0  0  0
    6.3350   14.3810   -0.6930 H   0  0  0  0  0  0  0  0  0  0  0  0
    3.9710   14.7450   -1.8370 H   0  0  0  0  0  0  0  0  0  0  0  0
  1 30  1  0  0  0  0
  1  3  2  0  0  0  0
  2  1  1  0  0  0  0
  3 32  1  0  0  0  0
  4  2  2  0  0  0  0
  4  6  1  0  0  0  0
  5  3  1  0  0  0  0
  6  5  2  0  0  0  0
  7  9  1  0  0  0  0
  7  6  1  0  0  0  0
  8  7  2  0  0  0  0
  9 11  2  0  0  0  0
 10 13  2  0  0  0  0
 10  8  1  0  0  0  0
 11 14  1  0  0  0  0
 12 15  2  0  0  0  0
 12  9  1  0  0  0  0
 13 12  1  0  0  0  0
 15 14  1  0  0  0  0
 16 18  1  0  0  0  0
 16 13  1  1  0  0  0
 17 16  1  0  0  0  0
 18 20  2  0  0  0  0
 19 17  2  0  0  0  0
 19 21  1  0  0  0  0
 21 18  1  0  0  0  0
 22 19  1  0  0  0  0
 22 25  2  0  0  0  0
 23 20  1  0  0  0  0
 23 35  1  0  0  0  0
 24 21  2  0  0  0  0
 24 27  1  0  0  0  0
 25 36  1  0  0  0  0
 26 29  1  0  0  0  0
 26 22  1  0  0  0  0
 27 23  2  0  0  0  0
 28 38  1  0  0  0  0
 28 25  1  0  0  0  0
 29 28  2  0  0  0  0
 31  2  1  0  0  0  0
 33  4  1  0  0  0  0
 34 10  1  0  0  0  0
 37 27  1  0  0  0  0
 39 29  1  0  0  0  0
M  END
$$$$
scan_sander_basal/min_pdbs/min_pdb_C169_225.pdb
 OpenBabel09051718393D

 39 44  0  0  1  0  0  0  0  0999 V2000
    0.6400   -0.2300    0.8140 C   0  0  0  0  0  0  0  0  0  0  0  0
   -0.0910    0.6460    0.0000 C   0  0  0  0  0  0  0  0  0  0  0  0
    1.8260    0.2290    1.4080 C   0  0  0  0  0  0  0  0  0  0  0  0
    0.3990    1.9470   -0.1820 C   0  0  0  0  0  0  0  0  0  0  0  0
    2.2900    1.4790    1.2310 N   0  0  0  0  0  0  0  0  0  0  0  0
    1.6030    2.3460    0.4520 C   0  0  0  0  0  0  0  0  0  0  0  0
    2.1730    3.7280    0.2880 C   0  0  0  0  0  0  0  0  0  0  0  0
    3.4980    3.8270    0.0510 N   0  0  0  0  0  0  0  0  0  0  0  0
    1.3930    4.9050    0.3770 C   0  0  0  0  0  0  0  0  0  0  0  0
    4.0730    5.0370   -0.1050 C   0  0  0  0  0  0  0  0  0  0  0  0
    0.0690    4.9230    0.6460 N   0  0  0  0  0  0  0  0  0  0  0  0
    1.9840    6.1550    0.2090 C   0  0  0  0  0  0  0  0  0  0  0  0
    3.3780    6.2710   -0.0540 C   0  0  0  0  0  0  0  0  0  0  0  0
   -0.3390    6.5040    0.6740 S   0  0  0  0  0  0  0  0  0  0  0  0
    1.1140    7.1790    0.3490 N   0  0  0  0  0  0  0  0  0  0  0  0
    4.0840    7.5760   -0.2330 C   0  0  1  0  0  0  0  0  0  0  0  0
    3.1910    9.1030   -0.4570 B   0  0  0  0  0  0  0  0  0  0  0  0
    5.5370    7.8220   -0.2410 C   0  0  0  0  0  0  0  0  0  0  0  0
    4.6980   10.0000   -0.5860 C   0  0  0  0  0  0  0  0  0  0  0  0
    6.4830    6.8770   -0.0560 N   0  0  0  0  0  0  0  0  0  0  0  0
    5.8820    9.1630   -0.4530 C   0  0  0  0  0  0  0  0  0  0  0  0
    4.7380   11.4310   -0.7830 C   0  0  0  0  0  0  0  0  0  0  0  0
    7.7670    7.2840   -0.1300 C   0  0  0  0  0  0  0  0  0  0  0  0
    7.1630    9.5760   -0.5570 N   0  0  0  0  0  0  0  0  0  0  0  0
    5.7980   12.2360   -0.4400 C   0  0  0  0  0  0  0  0  0  0  0  0
    3.4210   12.3470   -1.5060 S   0  0  0  0  0  0  0  0  0  0  0  0
    8.1060    8.6260   -0.3910 C   0  0  0  0  0  0  0  0  0  0  0  0
    5.5700   13.6050   -0.7650 C   0  0  0  0  0  0  0  0  0  0  0  0
    4.3480   13.8350   -1.3480 C   0  0  0  0  0  0  0  0  0  0  0  0
    0.2990   -1.2470    0.9810 H   0  0  0  0  0  0  0  0  0  0  0  0
   -1.0120    0.3240   -0.4790 H   0  0  0  0  0  0  0  0  0  0  0  0
    2.4220   -0.4230    2.0450 H   0  0  0  0  0  0  0  0  0  0  0  0
   -0.1420    2.6450   -0.8130 H   0  0  0  0  0  0  0  0  0  0  0  0
    5.1300    4.9750   -0.3300 H   0  0  0  0  0  0  0  0  0  0  0  0
    8.5340    6.5240    0.0120 H   0  0  0  0  0  0  0  0  0  0  0  0
    6.7060   11.9100    0.0500 H   0  0  0  0  0  0  0  0  0  0  0  0
    9.1450    8.9450   -0.4610 H   0  0  0  0  0  0  0  0  0  0  0  0
    6.2970   14.3860   -0.5630 H   0  0  0  0  0  0  0  0  0  0  0  0
    3.9270   14.7720   -1.6890 H   0  0  0  0  0  0  0  0  0  0  0  0
  1 30  1  0  0  0  0
  1  3  2  0  0  0  0
  2  1  1  0  0  0  0
  3 32  1  0  0  0  0
  4  2  2  0  0  0  0
  4  6  1  0  0  0  0
  5  3  1  0  0  0  0
  6  5  2  0  0  0  0
  7  9  1  0  0  0  0
  7  6  1  0  0  0  0
  8  7  2  0  0  0  0
  9 11  2  0  0  0  0
 10 13  2  0  0  0  0
 10  8  1  0  0  0  0
 11 14  1  0  0  0  0
 12 15  2  0  0  0  0
 12  9  1  0  0  0  0
 13 12  1  0  0  0  0
 15 14  1  0  0  0  0
 16 13  1  1  0  0  0
 17 16  1  0  0  0  0
 18 16  1  0  0  0  0
 18 20  2  0  0  0  0
 19 17  2  0  0  0  0
 19 21  1  0  0  0  0
 21 18  1  0  0  0  0
 22 19  1  0  0  0  0
 22 25  2  0  0  0  0
 23 20  1  0  0  0  0
 23 35  1  0  0  0  0
 24 21  2  0  0  0  0
 24 27  1  0  0  0  0
 25 36  1  0  0  0  0
 26 29  1  0  0  0  0
 26 22  1  0  0  0  0
 27 23  2  0  0  0  0
 28 38  1  0  0  0  0
 28 25  1  0  0  0  0
 29 28  2  0  0  0  0
 31  2  1  0  0  0  0
 33  4  1  0  0  0  0
 34 10  1  0  0  0  0
 37 27  1  0  0  0  0
 39 29  1  0  0  0  0
M  END
$$$$
scan_sander_basal/min_pdbs/min_pdb_C169_240.pdb
 OpenBabel09051718393D

 39 44  0  0  1  0  0  0  0  0999 V2000
    0.2770   -0.0230    0.9790 C   0  0  0  0  0  0  0  0  0  0  0  0
    0.5090    0.3410   -0.3550 C   0  0  0  0  0  0  0  0  0  0  0  0
    0.6550    0.8650    1.9990 C   0  0  0  0  0  0  0  0  0  0  0  0
    1.1120    1.5810   -0.6100 C   0  0  0  0  0  0  0  0  0  0  0  0
    1.2310    2.0550    1.7500 N   0  0  0  0  0  0  0  0  0  0  0  0
    1.4670    2.4250    0.4710 C   0  0  0  0  0  0  0  0  0  0  0  0
    2.1080    3.7590    0.2460 C   0  0  0  0  0  0  0  0  0  0  0  0
    3.3290    3.9640    0.7800 N   0  0  0  0  0  0  0  0  0  0  0  0
    1.4870    4.7840   -0.5000 C   0  0  0  0  0  0  0  0  0  0  0  0
    3.9500    5.1490    0.6080 C   0  0  0  0  0  0  0  0  0  0  0  0
    0.2640    4.6750   -1.0640 N   0  0  0  0  0  0  0  0  0  0  0  0
    2.1290    6.0050   -0.6850 C   0  0  0  0  0  0  0  0  0  0  0  0
    3.4180    6.2380   -0.1290 C   0  0  0  0  0  0  0  0  0  0  0  0
   -0.0020    6.1210   -1.7730 S   0  0  0  0  0  0  0  0  0  0  0  0
    1.3950    6.8870   -1.4000 N   0  0  0  0  0  0  0  0  0  0  0  0
    4.1590    7.5290   -0.2660 C   0  0  1  0  0  0  0  0  0  0  0  0
    3.6410    8.7910   -1.4150 B   0  0  0  0  0  0  0  0  0  0  0  0
    5.3540    7.9680    0.4780 C   0  0  0  0  0  0  0  0  0  0  0  0
    4.9600    9.8360   -0.9080 C   0  0  0  0  0  0  0  0  0  0  0  0
    5.9800    7.2470    1.4310 N   0  0  0  0  0  0  0  0  0  0  0  0
    5.8090    9.2410    0.1140 C   0  0  0  0  0  0  0  0  0  0  0  0
    5.1550   11.1620   -1.4480 C   0  0  0  0  0  0  0  0  0  0  0  0
    7.0840    7.7980    1.9790 C   0  0  0  0  0  0  0  0  0  0  0  0
    6.9280    9.7900    0.6340 N   0  0  0  0  0  0  0  0  0  0  0  0
    5.8330   12.1720   -0.8060 C   0  0  0  0  0  0  0  0  0  0  0  0
    4.5520   11.6690   -3.0210 S   0  0  0  0  0  0  0  0  0  0  0  0
    7.5620    9.0590    1.5750 C   0  0  0  0  0  0  0  0  0  0  0  0
    5.8850   13.3700   -1.5780 C   0  0  0  0  0  0  0  0  0  0  0  0
    5.2530   13.2680   -2.7930 C   0  0  0  0  0  0  0  0  0  0  0  0
   -0.1860   -0.9740    1.2220 H   0  0  0  0  0  0  0  0  0  0  0  0
    0.2290   -0.3210   -1.1710 H   0  0  0  0  0  0  0  0  0  0  0  0
    0.4900    0.6170    3.0470 H   0  0  0  0  0  0  0  0  0  0  0  0
    1.3050    1.8970   -1.6300 H   0  0  0  0  0  0  0  0  0  0  0  0
    4.9360    5.1770    1.0540 H   0  0  0  0  0  0  0  0  0  0  0  0
    7.5960    7.2170    2.7450 H   0  0  0  0  0  0  0  0  0  0  0  0
    6.2640   12.1120    0.1840 H   0  0  0  0  0  0  0  0  0  0  0  0
    8.4600    9.4920    2.0130 H   0  0  0  0  0  0  0  0  0  0  0  0
    6.3760   14.2730   -1.2300 H   0  0  0  0  0  0  0  0  0  0  0  0
    5.1440   14.0190   -3.5640 H   0  0  0  0  0  0  0  0  0  0  0  0
  1 30  1  0  0  0  0
  1  3  2  0  0  0  0
  2  1  1  0  0  0  0
  3 32  1  0  0  0  0
  4  2  2  0  0  0  0
  4  6  1  0  0  0  0
  5  3  1  0  0  0  0
  6  5  2  0  0  0  0
  7  6  1  0  0  0  0
  7  8  2  0  0  0  0
  9  7  1  0  0  0  0
 10  8  1  0  0  0  0
 10 34  1  0  0  0  0
 11  9  2  0  0  0  0
 12  9  1  0  0  0  0
 12 13  1  0  0  0  0
 13 10  2  0  0  0  0
 14 15  1  0  0  0  0
 14 11  1  0  0  0  0
 15 12  2  0  0  0  0
 16 13  1  1  0  0  0
 16 18  1  0  0  0  0
 17 19  2  0  0  0  0
 17 16  1  0  0  0  0
 18 20  1  0  0  0  0
 19 21  1  0  0  0  0
 20 23  2  0  0  0  0
 21 18  2  0  0  0  0
 21 24  1  0  0  0  0
 22 19  1  0  0  0  0
 22 25  2  0  0  0  0
 23 35  1  0  0  0  0
 24 27  2  0  0  0  0
 25 36  1  0  0  0  0
 26 29  1  0  0  0  0
 26 22  1  0  0  0  0
 27 23  1  0  0  0  0
 27 37  1  0  0  0  0
 28 38  1  0  0  0  0
 28 25  1  0  0  0  0
 29 28  2  0  0  0  0
 31  2  1  0  0  0  0
 33  4  1  0  0  0  0
 39 29  1  0  0  0  0
M  END
$$$$
scan_sander_basal/min_pdbs/min_pdb_C169_255.pdb
 OpenBabel09051718393D

 39 44  0  0  1  0  0  0  0  0999 V2000
    0.2500   -0.0060    0.9570 C   0  0  0  0  0  0  0  0  0  0  0  0
    0.7390    0.2490   -0.3320 C   0  0  0  0  0  0  0  0  0  0  0  0
    0.3930    0.9810    1.9460 C   0  0  0  0  0  0  0  0  0  0  0  0
    1.3520    1.4870   -0.5750 C   0  0  0  0  0  0  0  0  0  0  0  0
    0.9810    2.1680    1.7080 N   0  0  0  0  0  0  0  0  0  0  0  0
    1.4610    2.4320    0.4730 C   0  0  0  0  0  0  0  0  0  0  0  0
    2.1000    3.7650    0.2550 C   0  0  0  0  0  0  0  0  0  0  0  0
    3.3390    3.9540    0.7510 N   0  0  0  0  0  0  0  0  0  0  0  0
    1.4570    4.8020   -0.4530 C   0  0  0  0  0  0  0  0  0  0  0  0
    3.9560    5.1410    0.5800 C   0  0  0  0  0  0  0  0  0  0  0  0
    0.2190    4.7000   -0.9820 N   0  0  0  0  0  0  0  0  0  0  0  0
    2.0950    6.0240   -0.6370 C   0  0  0  0  0  0  0  0  0  0  0  0
    3.4020    6.2450   -0.1190 C   0  0  0  0  0  0  0  0  0  0  0  0
   -0.0670    6.1580   -1.6580 S   0  0  0  0  0  0  0  0  0  0  0  0
    1.3410    6.9180   -1.3150 N   0  0  0  0  0  0  0  0  0  0  0  0
    4.1420    7.5370   -0.2570 C   0  0  1  0  0  0  0  0  0  0  0  0
    3.5900    8.8190   -1.3650 B   0  0  0  0  0  0  0  0  0  0  0  0
    5.3620    7.9590    0.4540 C   0  0  0  0  0  0  0  0  0  0  0  0
    4.9340    9.8480   -0.8930 C   0  0  0  0  0  0  0  0  0  0  0  0
    6.0120    7.2220    1.3790 N   0  0  0  0  0  0  0  0  0  0  0  0
    5.8120    9.2350    0.0940 C   0  0  0  0  0  0  0  0  0  0  0  0
    5.1220   11.1780   -1.4240 C   0  0  0  0  0  0  0  0  0  0  0  0
    7.1350    7.7600    1.9010 C   0  0  0  0  0  0  0  0  0  0  0  0
    6.9490    9.7710    0.5870 N   0  0  0  0  0  0  0  0  0  0  0  0
    5.8300   12.1760   -0.7960 C   0  0  0  0  0  0  0  0  0  0  0  0
    4.4700   11.7060   -2.9710 S   0  0  0  0  0  0  0  0  0  0  0  0
    7.6070    9.0250    1.4980 C   0  0  0  0  0  0  0  0  0  0  0  0
    5.8670   13.3810   -1.5570 C   0  0  0  0  0  0  0  0  0  0  0  0
    5.1920   13.2970   -2.7510 C   0  0  0  0  0  0  0  0  0  0  0  0
   -0.2300   -0.9510    1.1900 H   0  0  0  0  0  0  0  0  0  0  0  0
    0.6450   -0.4920   -1.1220 H   0  0  0  0  0  0  0  0  0  0  0  0
    0.0250    0.8170    2.9580 H   0  0  0  0  0  0  0  0  0  0  0  0
    1.7410    1.7230   -1.5600 H   0  0  0  0  0  0  0  0  0  0  0  0
    4.9560    5.1600    0.9920 H   0  0  0  0  0  0  0  0  0  0  0  0
    7.6670    7.1670    2.6430 H   0  0  0  0  0  0  0  0  0  0  0  0
    6.2940   12.1020    0.1780 H   0  0  0  0  0  0  0  0  0  0  0  0
    8.5210    9.4470    1.9140 H   0  0  0  0  0  0  0  0  0  0  0  0
    6.3770   14.2760   -1.2160 H   0  0  0  0  0  0  0  0  0  0  0  0
    5.0640   14.0570   -3.5100 H   0  0  0  0  0  0  0  0  0  0  0  0
  1 30  1  0  0  0  0
  1  3  2  0  0  0  0
  2  1  1  0  0  0  0
  3 32  1  0  0  0  0
  4  2  2  0  0  0  0
  4  6  1  0  0  0  0
  5  3  1  0  0  0  0
  6  5  2  0  0  0  0
  7  6  1  0  0  0  0
  7  8  2  0  0  0  0
  9  7  1  0  0  0  0
 10  8  1  0  0  0  0
 10 34  1  0  0  0  0
 11  9  2  0  0  0  0
 12  9  1  0  0  0  0
 12 13  1  0  0  0  0
 13 10  2  0  0  0  0
 14 15  1  0  0  0  0
 14 11  1  0  0  0  0
 15 12  2  0  0  0  0
 16 13  1  1  0  0  0
 16 18  1  0  0  0  0
 17 19  2  0  0  0  0
 17 16  1  0  0  0  0
 18 20  1  0  0  0  0
 19 21  1  0  0  0  0
 20 23  2  0  0  0  0
 21 18  2  0  0  0  0
 21 24  1  0  0  0  0
 22 19  1  0  0  0  0
 22 25  2  0  0  0  0
 23 35  1  0  0  0  0
 24 27  2  0  0  0  0
 25 36  1  0  0  0  0
 26 29  1  0  0  0  0
 26 22  1  0  0  0  0
 27 23  1  0  0  0  0
 27 37  1  0  0  0  0
 28 38  1  0  0  0  0
 28 25  1  0  0  0  0
 29 28  2  0  0  0  0
 31  2  1  0  0  0  0
 33  4  1  0  0  0  0
 39 29  1  0  0  0  0
M  END
$$$$
scan_sander_basal/min_pdbs/min_pdb_C169_270.pdb
 OpenBabel09051718393D

 39 44  0  0  1  0  0  0  0  0999 V2000
    0.2310    0.0020    0.9380 C   0  0  0  0  0  0  0  0  0  0  0  0
    0.9610    0.1620   -0.2490 C   0  0  0  0  0  0  0  0  0  0  0  0
    0.1480    1.0790    1.8350 C   0  0  0  0  0  0  0  0  0  0  0  0
    1.5790    1.3990   -0.4850 C   0  0  0  0  0  0  0  0  0  0  0  0
    0.7420    2.2650    1.6050 N   0  0  0  0  0  0  0  0  0  0  0  0
    1.4520    2.4370    0.4690 C   0  0  0  0  0  0  0  0  0  0  0  0
    2.0870    3.7720    0.2530 C   0  0  0  0  0  0  0  0  0  0  0  0
    3.3420    3.9450    0.7110 N   0  0  0  0  0  0  0  0  0  0  0  0
    1.4240    4.8240   -0.4130 C   0  0  0  0  0  0  0  0  0  0  0  0
    3.9570    5.1340    0.5420 C   0  0  0  0  0  0  0  0  0  0  0  0
    0.1710    4.7340   -0.9060 N   0  0  0  0  0  0  0  0  0  0  0  0
    2.0600    6.0470   -0.5950 C   0  0  0  0  0  0  0  0  0  0  0  0
    3.3850    6.2530   -0.1170 C   0  0  0  0  0  0  0  0  0  0  0  0
   -0.1330    6.2050   -1.5450 S   0  0  0  0  0  0  0  0  0  0  0  0
    1.2880    6.9550   -1.2320 N   0  0  0  0  0  0  0  0  0  0  0  0
    4.1250    7.5440   -0.2550 C   0  0  1  0  0  0  0  0  0  0  0  0
    3.5420    8.8500   -1.3200 B   0  0  0  0  0  0  0  0  0  0  0  0
    5.3690    7.9490    0.4240 C   0  0  0  0  0  0  0  0  0  0  0  0
    4.9100    9.8610   -0.8790 C   0  0  0  0  0  0  0  0  0  0  0  0
    6.0440    7.1940    1.3160 N   0  0  0  0  0  0  0  0  0  0  0  0
    5.8160    9.2270    0.0680 C   0  0  0  0  0  0  0  0  0  0  0  0
    5.0900   11.1970   -1.3990 C   0  0  0  0  0  0  0  0  0  0  0  0
    7.1850    7.7180    1.8110 C   0  0  0  0  0  0  0  0  0  0  0  0
    6.9710    9.7490    0.5340 N   0  0  0  0  0  0  0  0  0  0  0  0
    5.8280   12.1810   -0.7820 C   0  0  0  0  0  0  0  0  0  0  0  0
    4.3900   11.7510   -2.9150 S   0  0  0  0  0  0  0  0  0  0  0  0
    7.6530    8.9860    1.4120 C   0  0  0  0  0  0  0  0  0  0  0  0
    5.8480   13.3960   -1.5280 C   0  0  0  0  0  0  0  0  0  0  0  0
    5.1330   13.3330   -2.6980 C   0  0  0  0  0  0  0  0  0  0  0  0
   -0.2630   -0.9380    1.1620 H   0  0  0  0  0  0  0  0  0  0  0  0
    1.0470   -0.6500   -0.9660 H   0  0  0  0  0  0  0  0  0  0  0  0
   -0.4100    0.9900    2.7660 H   0  0  0  0  0  0  0  0  0  0  0  0
    2.1530    1.5620   -1.3910 H   0  0  0  0  0  0  0  0  0  0  0  0
    4.9710    5.1410    0.9210 H   0  0  0  0  0  0  0  0  0  0  0  0
    7.7370    7.1100    2.5270 H   0  0  0  0  0  0  0  0  0  0  0  0
    6.3240   12.0910    0.1750 H   0  0  0  0  0  0  0  0  0  0  0  0
    8.5810    9.3970    1.8060 H   0  0  0  0  0  0  0  0  0  0  0  0
    6.3770   14.2820   -1.1930 H   0  0  0  0  0  0  0  0  0  0  0  0
    4.9850   14.1040   -3.4430 H   0  0  0  0  0  0  0  0  0  0  0  0
  1 30  1  0  0  0  0
  1  3  2  0  0  0  0
  2  1  1  0  0  0  0
  3 32  1  0  0  0  0
  4  2  2  0  0  0  0
  4  6  1  0  0  0  0
  5  3  1  0  0  0  0
  6  5  2  0  0  0  0
  7  6  1  0  0  0  0
  7  8  2  0  0  0  0
  9  7  1  0  0  0  0
 10  8  1  0  0  0  0
 10 34  1  0  0  0  0
 11  9  2  0  0  0  0
 12  9  1  0  0  0  0
 12 13  1  0  0  0  0
 13 10  2  0  0  0  0
 14 15  1  0  0  0  0
 14 11  1  0  0  0  0
 15 12  2  0  0  0  0
 16 13  1  1  0  0  0
 16 18  1  0  0  0  0
 17 19  2  0  0  0  0
 17 16  1  0  0  0  0
 18 20  1  0  0  0  0
 19 21  1  0  0  0  0
 20 23  2  0  0  0  0
 21 18  2  0  0  0  0
 21 24  1  0  0  0  0
 22 19  1  0  0  0  0
 22 25  2  0  0  0  0
 23 35  1  0  0  0  0
 24 27  2  0  0  0  0
 25 36  1  0  0  0  0
 26 29  1  0  0  0  0
 26 22  1  0  0  0  0
 27 37  1  0  0  0  0
 27 23  1  0  0  0  0
 28 38  1  0  0  0  0
 28 25  1  0  0  0  0
 29 28  2  0  0  0  0
 31  2  1  0  0  0  0
 33  4  1  0  0  0  0
 39 29  1  0  0  0  0
M  END
$$$$
scan_sander_basal/min_pdbs/min_pdb_C169_285.pdb
 OpenBabel09051718393D

 39 44  0  0  1  0  0  0  0  0999 V2000
    0.2120    0.0090    0.9290 C   0  0  0  0  0  0  0  0  0  0  0  0
    1.1620    0.0880   -0.0990 C   0  0  0  0  0  0  0  0  0  0  0  0
   -0.0780    1.1620    1.6760 C   0  0  0  0  0  0  0  0  0  0  0  0
    1.7820    1.3230   -0.3340 C   0  0  0  0  0  0  0  0  0  0  0  0
    0.5200    2.3460    1.4470 N   0  0  0  0  0  0  0  0  0  0  0  0
    1.4380    2.4420    0.4610 C   0  0  0  0  0  0  0  0  0  0  0  0
    2.0700    3.7780    0.2390 C   0  0  0  0  0  0  0  0  0  0  0  0
    3.3390    3.9380    0.6630 N   0  0  0  0  0  0  0  0  0  0  0  0
    1.3950    4.8440   -0.3910 C   0  0  0  0  0  0  0  0  0  0  0  0
    3.9560    5.1260    0.4940 C   0  0  0  0  0  0  0  0  0  0  0  0
    0.1290    4.7690   -0.8540 N   0  0  0  0  0  0  0  0  0  0  0  0
    2.0330    6.0660   -0.5730 C   0  0  0  0  0  0  0  0  0  0  0  0
    3.3720    6.2580   -0.1300 C   0  0  0  0  0  0  0  0  0  0  0  0
   -0.1840    6.2520   -1.4600 S   0  0  0  0  0  0  0  0  0  0  0  0
    1.2490    6.9890   -1.1740 N   0  0  0  0  0  0  0  0  0  0  0  0
    4.1150    7.5480   -0.2680 C   0  0  1  0  0  0  0  0  0  0  0  0
    3.5090    8.8740   -1.2940 B   0  0  0  0  0  0  0  0  0  0  0  0
    5.3810    7.9340    0.3810 C   0  0  0  0  0  0  0  0  0  0  0  0
    4.8920    9.8730   -0.8730 C   0  0  0  0  0  0  0  0  0  0  0  0
    6.0780    7.1610    1.2390 N   0  0  0  0  0  0  0  0  0  0  0  0
    5.8230    9.2180    0.0360 C   0  0  0  0  0  0  0  0  0  0  0  0
    5.0630   11.2180   -1.3710 C   0  0  0  0  0  0  0  0  0  0  0  0
    7.2360    7.6710    1.7090 C   0  0  0  0  0  0  0  0  0  0  0  0
    6.9930    9.7260    0.4770 N   0  0  0  0  0  0  0  0  0  0  0  0
    5.8200   12.1870   -0.7570 C   0  0  0  0  0  0  0  0  0  0  0  0
    4.3220   11.8030   -2.8560 S   0  0  0  0  0  0  0  0  0  0  0  0
    7.6970    8.9440    1.3200 C   0  0  0  0  0  0  0  0  0  0  0  0
    5.8240   13.4160   -1.4790 C   0  0  0  0  0  0  0  0  0  0  0  0
    5.0760   13.3780   -2.6300 C   0  0  0  0  0  0  0  0  0  0  0  0
   -0.2920   -0.9280    1.1470 H   0  0  0  0  0  0  0  0  0  0  0  0
    1.4130   -0.7850   -0.6960 H   0  0  0  0  0  0  0  0  0  0  0  0
   -0.8100    1.1370    2.4830 H   0  0  0  0  0  0  0  0  0  0  0  0
    2.5250    1.4250   -1.1190 H   0  0  0  0  0  0  0  0  0  0  0  0
    4.9810    5.1220    0.8440 H   0  0  0  0  0  0  0  0  0  0  0  0
    7.8060    7.0480    2.3970 H   0  0  0  0  0  0  0  0  0  0  0  0
    6.3430   12.0770    0.1840 H   0  0  0  0  0  0  0  0  0  0  0  0
    8.6390    9.3440    1.6940 H   0  0  0  0  0  0  0  0  0  0  0  0
    6.3650   14.2950   -1.1420 H   0  0  0  0  0  0  0  0  0  0  0  0
    4.9100   14.1640   -3.3550 H   0  0  0  0  0  0  0  0  0  0  0  0
  1 30  1  0  0  0  0
  1  3  2  0  0  0  0
  2  1  1  0  0  0  0
  3 32  1  0  0  0  0
  4  2  2  0  0  0  0
  4  6  1  0  0  0  0
  5  3  1  0  0  0  0
  6  5  2  0  0  0  0
  7  6  1  0  0  0  0
  7  8  2  0  0  0  0
  9  7  1  0  0  0  0
 10  8  1  0  0  0  0
 10 34  1  0  0  0  0
 11  9  2  0  0  0  0
 12  9  1  0  0  0  0
 12 13  1  0  0  0  0
 13 10  2  0  0  0  0
 14 15  1  0  0  0  0
 14 11  1  0  0  0  0
 15 12  2  0  0  0  0
 16 13  1  1  0  0  0
 16 18  1  0  0  0  0
 17 19  2  0  0  0  0
 17 16  1  0  0  0  0
 18 20  1  0  0  0  0
 19 21  1  0  0  0  0
 20 23  2  0  0  0  0
 21 18  2  0  0  0  0
 21 24  1  0  0  0  0
 22 19  1  0  0  0  0
 22 25  2  0  0  0  0
 23 35  1  0  0  0  0
 24 27  2  0  0  0  0
 25 36  1  0  0  0  0
 26 29  1  0  0  0  0
 26 22  1  0  0  0  0
 27 37  1  0  0  0  0
 27 23  1  0  0  0  0
 28 38  1  0  0  0  0
 28 25  1  0  0  0  0
 29 28  2  0  0  0  0
 31  2  1  0  0  0  0
 33  4  1  0  0  0  0
 39 29  1  0  0  0  0
M  END
$$$$
scan_sander_basal/min_pdbs/min_pdb_C169_300.pdb
 OpenBabel09051718393D

 39 44  0  0  1  0  0  0  0  0999 V2000
    0.2200   -0.0080    0.8960 C   0  0  0  0  0  0  0  0  0  0  0  0
    1.3480    0.0370    0.0650 C   0  0  0  0  0  0  0  0  0  0  0  0
   -0.2510    1.1860    1.4650 C   0  0  0  0  0  0  0  0  0  0  0  0
    1.9560    1.2800   -0.1620 C   0  0  0  0  0  0  0  0  0  0  0  0
    0.3360    2.3770    1.2450 N   0  0  0  0  0  0  0  0  0  0  0  0
    1.4230    2.4430    0.4450 C   0  0  0  0  0  0  0  0  0  0  0  0
    2.0440    3.7870    0.2250 C   0  0  0  0  0  0  0  0  0  0  0  0
    3.3280    3.9360    0.6070 N   0  0  0  0  0  0  0  0  0  0  0  0
    1.3500    4.8740   -0.3510 C   0  0  0  0  0  0  0  0  0  0  0  0
    3.9440    5.1250    0.4480 C   0  0  0  0  0  0  0  0  0  0  0  0
    0.0700    4.8190   -0.7760 N   0  0  0  0  0  0  0  0  0  0  0  0
    1.9880    6.0990   -0.5240 C   0  0  0  0  0  0  0  0  0  0  0  0
    3.3430    6.2740   -0.1250 C   0  0  0  0  0  0  0  0  0  0  0  0
   -0.2560    6.3190   -1.3310 S   0  0  0  0  0  0  0  0  0  0  0  0
    1.1890    7.0420   -1.0730 N   0  0  0  0  0  0  0  0  0  0  0  0
    4.0870    7.5640   -0.2580 C   0  0  1  0  0  0  0  0  0  0  0  0
    3.4520    8.9190   -1.2260 B   0  0  0  0  0  0  0  0  0  0  0  0
    5.3770    7.9280    0.3550 C   0  0  0  0  0  0  0  0  0  0  0  0
    4.8680    9.8910   -0.8520 C   0  0  0  0  0  0  0  0  0  0  0  0
    6.0920    7.1360    1.1810 N   0  0  0  0  0  0  0  0  0  0  0  0
    5.8220    9.2110    0.0140 C   0  0  0  0  0  0  0  0  0  0  0  0
    5.0410   11.2370   -1.3460 C   0  0  0  0  0  0  0  0  0  0  0  0
    7.2700    7.6270    1.6210 C   0  0  0  0  0  0  0  0  0  0  0  0
    7.0110    9.7020    0.4250 N   0  0  0  0  0  0  0  0  0  0  0  0
    5.8390   12.1890   -0.7550 C   0  0  0  0  0  0  0  0  0  0  0  0
    4.2520   11.8470   -2.7960 S   0  0  0  0  0  0  0  0  0  0  0  0
    7.7330    8.9000    1.2350 C   0  0  0  0  0  0  0  0  0  0  0  0
    5.8350   13.4230   -1.4680 C   0  0  0  0  0  0  0  0  0  0  0  0
    5.0410   13.4070   -2.5890 C   0  0  0  0  0  0  0  0  0  0  0  0
   -0.2820   -0.9490    1.0990 H   0  0  0  0  0  0  0  0  0  0  0  0
    1.7420   -0.8680   -0.3910 H   0  0  0  0  0  0  0  0  0  0  0  0
   -1.1240    1.1900    2.1170 H   0  0  0  0  0  0  0  0  0  0  0  0
    2.8330    1.3540   -0.7960 H   0  0  0  0  0  0  0  0  0  0  0  0
    4.9810    5.1090    0.7590 H   0  0  0  0  0  0  0  0  0  0  0  0
    7.8530    6.9890    2.2830 H   0  0  0  0  0  0  0  0  0  0  0  0
    6.3970   12.0630    0.1630 H   0  0  0  0  0  0  0  0  0  0  0  0
    8.6900    9.2850    1.5850 H   0  0  0  0  0  0  0  0  0  0  0  0
    6.4040   14.2900   -1.1470 H   0  0  0  0  0  0  0  0  0  0  0  0
    4.8600   14.2010   -3.3010 H   0  0  0  0  0  0  0  0  0  0  0  0
  1 30  1  0  0  0  0
  1  3  2  0  0  0  0
  2  1  1  0  0  0  0
  3 32  1  0  0  0  0
  4  2  2  0  0  0  0
  4  6  1  0  0  0  0
  5  3  1  0  0  0  0
  6  5  2  0  0  0  0
  7  6  1  0  0  0  0
  7  8  2  0  0  0  0
  9  7  1  0  0  0  0
 10  8  1  0  0  0  0
 10 34  1  0  0  0  0
 11  9  2  0  0  0  0
 12  9  1  0  0  0  0
 12 13  1  0  0  0  0
 13 10  2  0  0  0  0
 14 15  1  0  0  0  0
 14 11  1  0  0  0  0
 15 12  2  0  0  0  0
 16 13  1  1  0  0  0
 16 18  1  0  0  0  0
 17 19  2  0  0  0  0
 17 16  1  0  0  0  0
 18 20  1  0  0  0  0
 19 21  1  0  0  0  0
 20 23  2  0  0  0  0
 21 18  2  0  0  0  0
 21 24  1  0  0  0  0
 22 19  1  0  0  0  0
 22 25  2  0  0  0  0
 23 35  1  0  0  0  0
 24 27  2  0  0  0  0
 25 36  1  0  0  0  0
 26 29  1  0  0  0  0
 26 22  1  0  0  0  0
 27 37  1  0  0  0  0
 27 23  1  0  0  0  0
 28 38  1  0  0  0  0
 28 25  1  0  0  0  0
 29 28  2  0  0  0  0
 31  2  1  0  0  0  0
 33  4  1  0  0  0  0
 39 29  1  0  0  0  0
M  END
$$$$
scan_sander_basal/min_pdbs/min_pdb_C169_315.pdb
 OpenBabel09051718393D

 39 44  0  0  1  0  0  0  0  0999 V2000
    0.2260   -0.0250    0.8860 C   0  0  0  0  0  0  0  0  0  0  0  0
    1.4920    0.0070    0.2860 C   0  0  0  0  0  0  0  0  0  0  0  0
   -0.3910    1.1870    1.2320 C   0  0  0  0  0  0  0  0  0  0  0  0
    2.0850    1.2570    0.0560 C   0  0  0  0  0  0  0  0  0  0  0  0
    0.1840    2.3840    1.0090 N   0  0  0  0  0  0  0  0  0  0  0  0
    1.4030    2.4430    0.4270 C   0  0  0  0  0  0  0  0  0  0  0  0
    2.0140    3.7960    0.1980 C   0  0  0  0  0  0  0  0  0  0  0  0
    3.3120    3.9340    0.5400 N   0  0  0  0  0  0  0  0  0  0  0  0
    1.3100    4.9040   -0.3330 C   0  0  0  0  0  0  0  0  0  0  0  0
    3.9310    5.1220    0.3860 C   0  0  0  0  0  0  0  0  0  0  0  0
    0.0180    4.8730   -0.7270 N   0  0  0  0  0  0  0  0  0  0  0  0
    1.9530    6.1280   -0.5010 C   0  0  0  0  0  0  0  0  0  0  0  0
    3.3210    6.2860   -0.1420 C   0  0  0  0  0  0  0  0  0  0  0  0
   -0.3100    6.3870   -1.2390 S   0  0  0  0  0  0  0  0  0  0  0  0
    1.1480    7.0890   -1.0060 N   0  0  0  0  0  0  0  0  0  0  0  0
    4.0710    7.5740   -0.2700 C   0  0  1  0  0  0  0  0  0  0  0  0
    3.4170    8.9540   -1.1890 B   0  0  0  0  0  0  0  0  0  0  0  0
    5.3830    7.9150    0.3090 C   0  0  0  0  0  0  0  0  0  0  0  0
    4.8530    9.9050   -0.8420 C   0  0  0  0  0  0  0  0  0  0  0  0
    6.1160    7.1000    1.0970 N   0  0  0  0  0  0  0  0  0  0  0  0
    5.8280    9.2010   -0.0210 C   0  0  0  0  0  0  0  0  0  0  0  0
    5.0230   11.2600   -1.3150 C   0  0  0  0  0  0  0  0  0  0  0  0
    7.3110    7.5730    1.5100 C   0  0  0  0  0  0  0  0  0  0  0  0
    7.0330    9.6730    0.3640 N   0  0  0  0  0  0  0  0  0  0  0  0
    5.8490   12.1930   -0.7320 C   0  0  0  0  0  0  0  0  0  0  0  0
    4.1940   11.9050   -2.7270 S   0  0  0  0  0  0  0  0  0  0  0  0
    7.7730    8.8500    1.1350 C   0  0  0  0  0  0  0  0  0  0  0  0
    5.8330   13.4410   -1.4210 C   0  0  0  0  0  0  0  0  0  0  0  0
    5.0040   13.4530   -2.5160 C   0  0  0  0  0  0  0  0  0  0  0  0
   -0.2700   -0.9700    1.0830 H   0  0  0  0  0  0  0  0  0  0  0  0
    2.0020   -0.9120    0.0080 H   0  0  0  0  0  0  0  0  0  0  0  0
   -1.3730    1.2020    1.7010 H   0  0  0  0  0  0  0  0  0  0  0  0
    3.0670    1.3180   -0.4040 H   0  0  0  0  0  0  0  0  0  0  0  0
    4.9770    5.0910    0.6630 H   0  0  0  0  0  0  0  0  0  0  0  0
    7.9090    6.9170    2.1400 H   0  0  0  0  0  0  0  0  0  0  0  0
    6.4350   12.0440    0.1650 H   0  0  0  0  0  0  0  0  0  0  0  0
    8.7430    9.2200    1.4620 H   0  0  0  0  0  0  0  0  0  0  0  0
    6.4210   14.2960   -1.1020 H   0  0  0  0  0  0  0  0  0  0  0  0
    4.8080   14.2620   -3.2060 H   0  0  0  0  0  0  0  0  0  0  0  0
  1 30  1  0  0  0  0
  1  3  2  0  0  0  0
  2  1  1  0  0  0  0
  3 32  1  0  0  0  0
  4  2  2  0  0  0  0
  4  6  1  0  0  0  0
  5  3  1  0  0  0  0
  6  5  2  0  0  0  0
  7  6  1  0  0  0  0
  7  8  2  0  0  0  0
  9  7  1  0  0  0  0
 10  8  1  0  0  0  0
 10 34  1  0  0  0  0
 11  9  2  0  0  0  0
 12  9  1  0  0  0  0
 12 13  1  0  0  0  0
 13 10  2  0  0  0  0
 14 15  1  0  0  0  0
 14 11  1  0  0  0  0
 15 12  2  0  0  0  0
 16 13  1  1  0  0  0
 16 18  1  0  0  0  0
 17 19  2  0  0  0  0
 17 16  1  0  0  0  0
 18 20  1  0  0  0  0
 19 21  1  0  0  0  0
 20 23  2  0  0  0  0
 21 18  2  0  0  0  0
 21 24  1  0  0  0  0
 22 19  1  0  0  0  0
 22 25  2  0  0  0  0
 23 35  1  0  0  0  0
 24 27  2  0  0  0  0
 25 36  1  0  0  0  0
 26 29  1  0  0  0  0
 26 22  1  0  0  0  0
 27 37  1  0  0  0  0
 27 23  1  0  0  0  0
 28 38  1  0  0  0  0
 28 25  1  0  0  0  0
 29 28  2  0  0  0  0
 31  2  1  0  0  0  0
 33  4  1  0  0  0  0
 39 29  1  0  0  0  0
M  END
$$$$
scan_sander_basal/min_pdbs/min_pdb_C169_330.pdb
 OpenBabel09051718393D

 39 44  0  0  1  0  0  0  0  0999 V2000
    0.2290   -0.0450    0.8790 C   0  0  0  0  0  0  0  0  0  0  0  0
    1.5870    0.0050    0.5390 C   0  0  0  0  0  0  0  0  0  0  0  0
   -0.4880    1.1570    0.9720 C   0  0  0  0  0  0  0  0  0  0  0  0
    2.1670    1.2590    0.3030 C   0  0  0  0  0  0  0  0  0  0  0  0
    0.0770    2.3570    0.7450 N   0  0  0  0  0  0  0  0  0  0  0  0
    1.3840    2.4390    0.4080 C   0  0  0  0  0  0  0  0  0  0  0  0
    1.9850    3.8030    0.1700 C   0  0  0  0  0  0  0  0  0  0  0  0
    3.2940    3.9340    0.4740 N   0  0  0  0  0  0  0  0  0  0  0  0
    1.2770    4.9310   -0.3220 C   0  0  0  0  0  0  0  0  0  0  0  0
    3.9200    5.1180    0.3230 C   0  0  0  0  0  0  0  0  0  0  0  0
   -0.0260    4.9280   -0.6840 N   0  0  0  0  0  0  0  0  0  0  0  0
    1.9270    6.1530   -0.4880 C   0  0  0  0  0  0  0  0  0  0  0  0
    3.3060    6.2950   -0.1670 C   0  0  0  0  0  0  0  0  0  0  0  0
   -0.3520    6.4520   -1.1620 S   0  0  0  0  0  0  0  0  0  0  0  0
    1.1200    7.1320   -0.9540 N   0  0  0  0  0  0  0  0  0  0  0  0
    4.0630    7.5790   -0.2940 C   0  0  1  0  0  0  0  0  0  0  0  0
    3.3950    8.9820   -1.1690 B   0  0  0  0  0  0  0  0  0  0  0  0
    5.3940    7.8990    0.2530 C   0  0  0  0  0  0  0  0  0  0  0  0
    4.8460    9.9180   -0.8380 C   0  0  0  0  0  0  0  0  0  0  0  0
    6.1440    7.0620    1.0010 N   0  0  0  0  0  0  0  0  0  0  0  0
    5.8380    9.1890   -0.0610 C   0  0  0  0  0  0  0  0  0  0  0  0
    5.0100   11.2820   -1.2830 C   0  0  0  0  0  0  0  0  0  0  0  0
    7.3540    7.5180    1.3880 C   0  0  0  0  0  0  0  0  0  0  0  0
    7.0580    9.6450    0.2970 N   0  0  0  0  0  0  0  0  0  0  0  0
    5.8560   12.1970   -0.7000 C   0  0  0  0  0  0  0  0  0  0  0  0
    4.1460   11.9650   -2.6550 S   0  0  0  0  0  0  0  0  0  0  0  0
    7.8140    8.8000    1.0280 C   0  0  0  0  0  0  0  0  0  0  0  0
    5.8280   13.4610   -1.3570 C   0  0  0  0  0  0  0  0  0  0  0  0
    4.9700   13.5050   -2.4280 C   0  0  0  0  0  0  0  0  0  0  0  0
   -0.2610   -0.9950    1.0700 H   0  0  0  0  0  0  0  0  0  0  0  0
    2.1760   -0.9060    0.4590 H   0  0  0  0  0  0  0  0  0  0  0  0
   -1.5440    1.1610    1.2360 H   0  0  0  0  0  0  0  0  0  0  0  0
    3.2180    1.3240    0.0370 H   0  0  0  0  0  0  0  0  0  0  0  0
    4.9730    5.0730    0.5690 H   0  0  0  0  0  0  0  0  0  0  0  0
    7.9670    6.8440    1.9860 H   0  0  0  0  0  0  0  0  0  0  0  0
    6.4650   12.0230    0.1770 H   0  0  0  0  0  0  0  0  0  0  0  0
    8.7970    9.1560    1.3340 H   0  0  0  0  0  0  0  0  0  0  0  0
    6.4280   14.3060   -1.0330 H   0  0  0  0  0  0  0  0  0  0  0  0
    4.7590   14.3320   -3.0940 H   0  0  0  0  0  0  0  0  0  0  0  0
  1  3  1  0  0  0  0
  1 30  1  0  0  0  0
  2  1  2  0  0  0  0
  3 32  1  0  0  0  0
  4  6  2  0  0  0  0
  4  2  1  0  0  0  0
  5  3  2  0  0  0  0
  6  5  1  0  0  0  0
  7  6  1  0  0  0  0
  7  8  2  0  0  0  0
  9  7  1  0  0  0  0
 10  8  1  0  0  0  0
 10 34  1  0  0  0  0
 11  9  2  0  0  0  0
 12  9  1  0  0  0  0
 12 13  1  0  0  0  0
 13 10  2  0  0  0  0
 14 15  1  0  0  0  0
 14 11  1  0  0  0  0
 15 12  2  0  0  0  0
 16 13  1  1  0  0  0
 16 18  1  0  0  0  0
 17 19  2  0  0  0  0
 17 16  1  0  0  0  0
 18 20  1  0  0  0  0
 19 21  1  0  0  0  0
 20 23  2  0  0  0  0
 21 18  2  0  0  0  0
 21 24  1  0  0  0  0
 22 19  1  0  0  0  0
 22 25  2  0  0  0  0
 23 35  1  0  0  0  0
 24 27  2  0  0  0  0
 25 36  1  0  0  0  0
 26 29  1  0  0  0  0
 26 22  1  0  0  0  0
 27 37  1  0  0  0  0
 27 23  1  0  0  0  0
 28 38  1  0  0  0  0
 28 25  1  0  0  0  0
 29 28  2  0  0  0  0
 31  2  1  0  0  0  0
 33  4  1  0  0  0  0
 39 29  1  0  0  0  0
M  END
$$$$
scan_sander_basal/min_pdbs/min_pdb_C169_345.pdb
 OpenBabel09051718393D

 39 44  0  0  1  0  0  0  0  0999 V2000
    0.2340   -0.0730    0.8320 C   0  0  0  0  0  0  0  0  0  0  0  0
    1.6290    0.0250    0.7750 C   0  0  0  0  0  0  0  0  0  0  0  0
   -0.5280    1.0920    0.6690 C   0  0  0  0  0  0  0  0  0  0  0  0
    2.2000    1.2870    0.5560 C   0  0  0  0  0  0  0  0  0  0  0  0
    0.0290    2.2990    0.4590 N   0  0  0  0  0  0  0  0  0  0  0  0
    1.3730    2.4330    0.3940 C   0  0  0  0  0  0  0  0  0  0  0  0
    1.9630    3.8110    0.1630 C   0  0  0  0  0  0  0  0  0  0  0  0
    3.2810    3.9370    0.4320 N   0  0  0  0  0  0  0  0  0  0  0  0
    1.2490    4.9550   -0.2920 C   0  0  0  0  0  0  0  0  0  0  0  0
    3.9110    5.1180    0.2820 C   0  0  0  0  0  0  0  0  0  0  0  0
   -0.0650    4.9780   -0.6100 N   0  0  0  0  0  0  0  0  0  0  0  0
    1.9050    6.1760   -0.4560 C   0  0  0  0  0  0  0  0  0  0  0  0
    3.2920    6.3060   -0.1730 C   0  0  0  0  0  0  0  0  0  0  0  0
   -0.3900    6.5120   -1.0550 S   0  0  0  0  0  0  0  0  0  0  0  0
    1.0940    7.1710   -0.8800 N   0  0  0  0  0  0  0  0  0  0  0  0
    4.0560    7.5860   -0.3020 C   0  0  1  0  0  0  0  0  0  0  0  0
    3.3740    9.0070   -1.1370 B   0  0  0  0  0  0  0  0  0  0  0  0
    5.4040    7.8880    0.2120 C   0  0  0  0  0  0  0  0  0  0  0  0
    4.8390    9.9280   -0.8310 C   0  0  0  0  0  0  0  0  0  0  0  0
    6.1700    7.0340    0.9240 N   0  0  0  0  0  0  0  0  0  0  0  0
    5.8480    9.1800   -0.0940 C   0  0  0  0  0  0  0  0  0  0  0  0
    5.0000   11.2990   -1.2560 C   0  0  0  0  0  0  0  0  0  0  0  0
    7.3930    7.4760    1.2830 C   0  0  0  0  0  0  0  0  0  0  0  0
    7.0810    9.6220    0.2360 N   0  0  0  0  0  0  0  0  0  0  0  0
    5.8680   12.1990   -0.6810 C   0  0  0  0  0  0  0  0  0  0  0  0
    4.1030   12.0110   -2.5930 S   0  0  0  0  0  0  0  0  0  0  0  0
    7.8520    8.7600    0.9310 C   0  0  0  0  0  0  0  0  0  0  0  0
    5.8300   13.4740   -1.3160 C   0  0  0  0  0  0  0  0  0  0  0  0
    4.9430   13.5420   -2.3620 C   0  0  0  0  0  0  0  0  0  0  0  0
   -0.2510   -1.0300    1.0000 H   0  0  0  0  0  0  0  0  0  0  0  0
    2.2550   -0.8560    0.8980 H   0  0  0  0  0  0  0  0  0  0  0  0
   -1.6170    1.0610    0.7080 H   0  0  0  0  0  0  0  0  0  0  0  0
    3.2810    1.3770    0.5070 H   0  0  0  0  0  0  0  0  0  0  0  0
    4.9700    5.0620    0.4980 H   0  0  0  0  0  0  0  0  0  0  0  0
    8.0180    6.7880    1.8520 H   0  0  0  0  0  0  0  0  0  0  0  0
    6.4990   12.0060    0.1760 H   0  0  0  0  0  0  0  0  0  0  0  0
    8.8450    9.1050    1.2140 H   0  0  0  0  0  0  0  0  0  0  0  0
    6.4440   14.3090   -0.9940 H   0  0  0  0  0  0  0  0  0  0  0  0
    4.7190   14.3810   -3.0060 H   0  0  0  0  0  0  0  0  0  0  0  0
  1 30  1  0  0  0  0
  2  1  1  0  0  0  0
  2 31  1  0  0  0  0
  3 32  1  0  0  0  0
  3  1  2  0  0  0  0
  4  2  2  0  0  0  0
  5  3  1  0  0  0  0
  6  5  2  0  0  0  0
  6  4  1  0  0  0  0
  7  6  1  0  0  0  0
  7  8  2  0  0  0  0
  9  7  1  0  0  0  0
 10  8  1  0  0  0  0
 10 34  1  0  0  0  0
 11  9  2  0  0  0  0
 12  9  1  0  0  0  0
 12 13  1  0  0  0  0
 13 10  2  0  0  0  0
 14 15  1  0  0  0  0
 14 11  1  0  0  0  0
 15 12  2  0  0  0  0
 16 13  1  1  0  0  0
 16 18  1  0  0  0  0
 17 19  2  0  0  0  0
 17 16  1  0  0  0  0
 18 20  1  0  0  0  0
 19 21  1  0  0  0  0
 20 23  2  0  0  0  0
 21 18  2  0  0  0  0
 21 24  1  0  0  0  0
 22 19  1  0  0  0  0
 22 25  2  0  0  0  0
 23 35  1  0  0  0  0
 24 27  2  0  0  0  0
 25 36  1  0  0  0  0
 26 29  1  0  0  0  0
 26 22  1  0  0  0  0
 27 37  1  0  0  0  0
 27 23  1  0  0  0  0
 28 38  1  0  0  0  0
 28 25  1  0  0  0  0
 29 28  2  0  0  0  0
 33  4  1  0  0  0  0
 39 29  1  0  0  0  0
M  END
$$$$
scan_sander_basal/min_pdbs/min_pdb_C169_360.pdb
 OpenBabel09051718393D

 39 44  0  0  1  0  0  0  0  0999 V2000
    0.2530   -0.1050    0.7230 C   0  0  0  0  0  0  0  0  0  0  0  0
    1.6230    0.0570    0.9580 C   0  0  0  0  0  0  0  0  0  0  0  0
   -0.4970    1.0110    0.3280 C   0  0  0  0  0  0  0  0  0  0  0  0
    2.1820    1.3320    0.7870 C   0  0  0  0  0  0  0  0  0  0  0  0
    0.0500    2.2300    0.1660 N   0  0  0  0  0  0  0  0  0  0  0  0
    1.3700    2.4290    0.3830 C   0  0  0  0  0  0  0  0  0  0  0  0
    1.9490    3.8200    0.1850 C   0  0  0  0  0  0  0  0  0  0  0  0
    3.2740    3.9410    0.4160 N   0  0  0  0  0  0  0  0  0  0  0  0
    1.2240    4.9780   -0.2200 C   0  0  0  0  0  0  0  0  0  0  0  0
    3.9040    5.1220    0.2710 C   0  0  0  0  0  0  0  0  0  0  0  0
   -0.1040    5.0220   -0.4730 N   0  0  0  0  0  0  0  0  0  0  0  0
    1.8800    6.2000   -0.3790 C   0  0  0  0  0  0  0  0  0  0  0  0
    3.2770    6.3200   -0.1420 C   0  0  0  0  0  0  0  0  0  0  0  0
   -0.4350    6.5660   -0.8750 S   0  0  0  0  0  0  0  0  0  0  0  0
    1.0600    7.2110   -0.7470 N   0  0  0  0  0  0  0  0  0  0  0  0
    4.0420    7.5980   -0.2750 C   0  0  1  0  0  0  0  0  0  0  0  0
    3.3410    9.0370   -1.0620 B   0  0  0  0  0  0  0  0  0  0  0  0
    5.4080    7.8840    0.1970 C   0  0  0  0  0  0  0  0  0  0  0  0
    4.8280    9.9380   -0.8080 C   0  0  0  0  0  0  0  0  0  0  0  0
    6.1880    7.0190    0.8800 N   0  0  0  0  0  0  0  0  0  0  0  0
    5.8550    9.1750   -0.1130 C   0  0  0  0  0  0  0  0  0  0  0  0
    4.9890   11.3090   -1.2370 C   0  0  0  0  0  0  0  0  0  0  0  0
    7.4260    7.4470    1.2040 C   0  0  0  0  0  0  0  0  0  0  0  0
    7.1000    9.6040    0.1830 N   0  0  0  0  0  0  0  0  0  0  0  0
    5.8890   12.1960   -0.6930 C   0  0  0  0  0  0  0  0  0  0  0  0
    4.0510   12.0350   -2.5360 S   0  0  0  0  0  0  0  0  0  0  0  0
    7.8840    8.7300    0.8470 C   0  0  0  0  0  0  0  0  0  0  0  0
    5.8430   13.4740   -1.3230 C   0  0  0  0  0  0  0  0  0  0  0  0
    4.9180   13.5540   -2.3340 C   0  0  0  0  0  0  0  0  0  0  0  0
   -0.2210   -1.0740    0.8420 H   0  0  0  0  0  0  0  0  0  0  0  0
    2.2400   -0.7840    1.2650 H   0  0  0  0  0  0  0  0  0  0  0  0
   -1.5660    0.9300    0.1350 H   0  0  0  0  0  0  0  0  0  0  0  0
    3.2440    1.4680    0.9660 H   0  0  0  0  0  0  0  0  0  0  0  0
    4.9700    5.0570    0.4500 H   0  0  0  0  0  0  0  0  0  0  0  0
    8.0610    6.7500    1.7490 H   0  0  0  0  0  0  0  0  0  0  0  0
    6.5510   11.9940    0.1390 H   0  0  0  0  0  0  0  0  0  0  0  0
    8.8890    9.0640    1.1020 H   0  0  0  0  0  0  0  0  0  0  0  0
    6.4800   14.3000   -1.0230 H   0  0  0  0  0  0  0  0  0  0  0  0
    4.6800   14.3980   -2.9690 H   0  0  0  0  0  0  0  0  0  0  0  0
  1 30  1  0  0  0  0
  1  2  2  0  0  0  0
  2 31  1  0  0  0  0
  3  1  1  0  0  0  0
  4  2  1  0  0  0  0
  4 33  1  0  0  0  0
  5  3  2  0  0  0  0
  5  6  1  0  0  0  0
  6  4  2  0  0  0  0
  7  6  1  0  0  0  0
  7  8  2  0  0  0  0
  9  7  1  0  0  0  0
 10  8  1  0  0  0  0
 10 34  1  0  0  0  0
 11  9  2  0  0  0  0
 12  9  1  0  0  0  0
 12 13  1  0  0  0  0
 13 10  2  0  0  0  0
 14 15  1  0  0  0  0
 14 11  1  0  0  0  0
 15 12  2  0  0  0  0
 16 13  1  1  0  0  0
 16 18  1  0  0  0  0
 17 19  2  0  0  0  0
 17 16  1  0  0  0  0
 18 20  2  0  0  0  0
 19 21  1  0  0  0  0
 20 23  1  0  0  0  0
 21 24  2  0  0  0  0
 21 18  1  0  0  0  0
 22 19  1  0  0  0  0
 22 25  2  0  0  0  0
 23 35  1  0  0  0  0
 24 27  1  0  0  0  0
 25 36  1  0  0  0  0
 26 29  1  0  0  0  0
 26 22  1  0  0  0  0
 27 37  1  0  0  0  0
 27 23  2  0  0  0  0
 28 38  1  0  0  0  0
 28 25  1  0  0  0  0
 29 28  2  0  0  0  0
 32  3  1  0  0  0  0
 39 29  1  0  0  0  0
M  END
$$$$
