@<TRIPOS>MOLECULE
*****
   38    43     1     0     0
SMALL
No Charge or Current Charge


@<TRIPOS>ATOM
      1 C            1.4040     1.2970     0.5780 ca         1 LIG      -0.093395
      2 C1           0.0500     1.0850     0.8080 ca         1 LIG      -0.088808
      3 C2           2.2090     0.2320     0.1920 ca         1 LIG      -0.080673
      4 C3          -0.4950    -0.1960     0.6620 ca         1 LIG      -0.157830
      5 C4           1.6570    -1.0440     0.0310 ca         1 LIG      -0.153399
      6 C5           0.2940    -1.2970     0.2710 DD         1 LIG       0.119252
      7 C6          -0.3010    -2.6350     0.1000 cp         1 LIG      -0.115770
      8 C7          -1.6090    -2.8550    -0.3610 AA         1 LIG       0.106113
      9 C8           0.3730    -3.8620     0.3750 ca         1 LIG       0.218754
     10 N           -2.2630    -4.0440    -0.5600 nb         1 LIG      -0.366006
     11 N1           1.6290    -4.0040     0.8400 nc         1 LIG      -0.467992
     12 C9          -0.3080    -5.2070     0.1630 ca         1 LIG       0.083408
     13 C10         -1.6430    -5.2400    -0.3060 ca         1 LIG       0.205846
     14 S            1.9380    -5.6220     0.9670 ss         1 LIG       0.607114
     15 N2           0.5020    -6.2450     0.4450 nc         1 LIG      -0.405609
     16 C11         -2.3700    -6.4860    -0.5360 cc         1 LIG       0.114579
     17 N3          -2.1870    -7.6240     0.1010 nd         1 LIG      -0.314976
     18 S1          -3.5980    -6.5390    -1.7460 BB         1 LIG       0.153397
     19 C12         -3.0430    -8.5920    -0.3930 cd         1 LIG       0.046937
     20 C13         -3.8930    -8.2000    -1.4080 EE         1 LIG      -0.123803
     21 C14         -4.8840    -8.9690    -2.1190 cc         1 LIG      -0.077810
     22 S2          -5.3210    -8.6560    -3.7710 CC         1 LIG       0.238146
     23 C15         -5.6090   -10.0330    -1.6400 cd         1 LIG      -0.077382
     24 C16         -6.4770    -9.9270    -3.8220 cc         1 LIG      -0.377453
     25 S3          -5.6660   -10.8720    -0.0340 ss         1 LIG       0.141031
     26 C17         -6.4790   -10.5310    -2.6190 cd         1 LIG       0.131117
     27 C18         -6.8880   -11.8990    -0.7660 cc         1 LIG      -0.208148
     28 C19         -7.2200   -11.6170    -2.0950 cd         1 LIG      -0.176118
     29 H            1.8320     2.2880     0.7000 ha         1 LIG       0.098016
     30 H1          -0.5860     1.9140     1.1090 ha         1 LIG       0.103708
     31 H2           3.2700     0.3870     0.0130 ha         1 LIG       0.100014
     32 H3          -1.5560    -0.3180     0.8740 ha         1 LIG       0.101972
     33 H4           2.3230    -1.8420    -0.2910 ha         1 LIG       0.107724
     34 H5          -2.2360    -2.0010    -0.6240 h4         1 LIG       0.078247
     35 H6          -2.9850    -9.5860     0.0350 h4         1 LIG       0.088329
     36 H7          -7.0590   -10.1330    -4.7110 h4         1 LIG       0.167135
     37 H8          -7.3100   -12.6790    -0.1460 h4         1 LIG       0.142288
     38 H9          -7.9680   -12.1800    -2.6390 ha         1 LIG       0.132045
@<TRIPOS>BOND
     1    25    27 1   
     2    27    28 2   
     3    28    26 1   
     4    26    24 2   
     5    24    22 1   
     6    22    21 1   
     7    21    20 1   
     8    20    18 1   
     9    18    16 1   
    10    16    17 2   
    11    17    19 1   
    12    20    19 2   
    13    16    13 1   
    14    13    10 ar  
    15    10     8 ar  
    16     8     7 ar  
    17     7     6 1   
    18     6     4 ar  
    19     4     2 ar  
    20     2     1 ar  
    21     1     3 ar  
    22     3     5 ar  
    23     6     5 ar  
    24     7     9 ar  
    25     9    11 2   
    26    11    14 1   
    27    14    15 1   
    28    15    12 2   
    29    13    12 ar  
    30     9    12 ar  
    31    21    23 2   
    32    25    23 1   
    33    26    23 1   
    34     1    29 1   
    35     2    30 1   
    36     3    31 1   
    37     4    32 1   
    38     5    33 1   
    39     8    34 1   
    40    19    35 1   
    41    24    36 1   
    42    27    37 1   
    43    28    38 1   
@<TRIPOS>SUBSTRUCTURE
     1 LIG         1 TEMP              0 ****  ****    0 ROOT
