scan_sander_basal/min_pdbs/min_pdb_C271_000.pdb
 OpenBabel09051719253D

 37 42  0  0  1  0  0  0  0  0999 V2000
    0.1150   -0.0560    0.7350 C   0  0  0  0  0  0  0  0  0  0  0  0
    1.4530    0.1190    1.1040 C   0  0  0  0  0  0  0  0  0  0  0  0
   -0.6150    0.9380    0.2050 N   0  0  0  0  0  0  0  0  0  0  0  0
    2.0540    1.3730    0.9140 C   0  0  0  0  0  0  0  0  0  0  0  0
   -0.0340    2.1420    0.0240 C   0  0  0  0  0  0  0  0  0  0  0  0
    1.3190    2.4580    0.3550 C   0  0  0  0  0  0  0  0  0  0  0  0
    1.9640    3.8240    0.1450 C   0  0  0  0  0  0  0  0  0  0  0  0
    3.3210    4.0450    0.5040 C   0  0  0  0  0  0  0  0  0  0  0  0
    1.3300    4.9790   -0.4050 C   0  0  0  0  0  0  0  0  0  0  0  0
    3.9800    5.2070    0.3580 N   0  0  0  0  0  0  0  0  0  0  0  0
    0.0500    5.0300   -0.8220 N   0  0  0  0  0  0  0  0  0  0  0  0
    2.0140    6.1860   -0.5570 C   0  0  0  0  0  0  0  0  0  0  0  0
    3.3710    6.2900   -0.1630 C   0  0  0  0  0  0  0  0  0  0  0  0
   -0.2050    6.5470   -1.3640 S   0  0  0  0  0  0  0  0  0  0  0  0
    1.2730    7.1850   -1.0940 N   0  0  0  0  0  0  0  0  0  0  0  0
    4.1690    7.5380   -0.2940 C   0  0  1  0  0  0  0  0  0  0  0  0
    3.5900    9.0970   -0.9270 B   0  0  0  0  0  0  0  0  0  0  0  0
    5.5010    7.6780    0.0650 C   0  0  0  0  0  0  0  0  0  0  0  0
    5.1590    9.8710   -0.6900 C   0  0  0  0  0  0  0  0  0  0  0  0
    6.6180    6.5140    0.7430 S   0  0  0  0  0  0  0  0  0  0  0  0
    6.0270    8.9500   -0.1550 C   0  0  0  0  0  0  0  0  0  0  0  0
    5.4410   11.2480   -1.0090 C   0  0  0  0  0  0  0  0  0  0  0  0
    7.8550    7.7980    0.7330 C   0  0  0  0  0  0  0  0  0  0  0  0
    7.3990    9.0100    0.2370 C   0  0  0  0  0  0  0  0  0  0  0  0
    6.6430   11.7440   -0.7830 C   0  0  0  0  0  0  0  0  0  0  0  0
    4.2580   12.3380   -1.6950 S   0  0  0  0  0  0  0  0  0  0  0  0
    6.6910   13.0680   -1.1590 C   0  0  0  0  0  0  0  0  0  0  0  0
    5.5090   13.5570   -1.6680 C   0  0  0  0  0  0  0  0  0  0  0  0
   -0.3860   -1.0150    0.8660 H   0  0  0  0  0  0  0  0  0  0  0  0
    2.0150   -0.7070    1.5300 H   0  0  0  0  0  0  0  0  0  0  0  0
    3.0900    1.4750    1.2100 H   0  0  0  0  0  0  0  0  0  0  0  0
   -0.7100    2.8680   -0.4080 H   0  0  0  0  0  0  0  0  0  0  0  0
    3.9330    3.2600    0.9350 H   0  0  0  0  0  0  0  0  0  0  0  0
    8.8470    7.5640    1.0990 H   0  0  0  0  0  0  0  0  0  0  0  0
    8.0220    9.8930    0.1610 H   0  0  0  0  0  0  0  0  0  0  0  0
    7.6160   13.6170   -1.0350 H   0  0  0  0  0  0  0  0  0  0  0  0
    5.2960   14.5540   -2.0280 H   0  0  0  0  0  0  0  0  0  0  0  0
  1 29  1  0  0  0  0
  1  2  2  0  0  0  0
  2 30  1  0  0  0  0
  3  1  1  0  0  0  0
  4  2  1  0  0  0  0
  4 31  1  0  0  0  0
  5  3  2  0  0  0  0
  5  6  1  0  0  0  0
  6  4  2  0  0  0  0
  7  6  1  0  0  0  0
  7  8  2  0  0  0  0
  8 33  1  0  0  0  0
  9  7  1  0  0  0  0
 10  8  1  0  0  0  0
 11  9  2  0  0  0  0
 12  9  1  0  0  0  0
 12 13  1  0  0  0  0
 13 10  2  0  0  0  0
 14 15  1  0  0  0  0
 14 11  1  0  0  0  0
 15 12  2  0  0  0  0
 16 13  1  1  0  0  0
 16 18  1  0  0  0  0
 17 19  2  0  0  0  0
 17 16  1  0  0  0  0
 18 20  1  0  0  0  0
 19 21  1  0  0  0  0
 21 18  2  0  0  0  0
 21 24  1  0  0  0  0
 22 25  2  0  0  0  0
 22 19  1  0  0  0  0
 23 20  1  0  0  0  0
 23 34  1  0  0  0  0
 24 23  2  0  0  0  0
 26 28  1  0  0  0  0
 26 22  1  0  0  0  0
 27 36  1  0  0  0  0
 27 25  1  0  0  0  0
 28 27  2  0  0  0  0
 32  5  1  0  0  0  0
 35 24  1  0  0  0  0
 37 28  1  0  0  0  0
M  END
$$$$
scan_sander_basal/min_pdbs/min_pdb_C271_015.pdb
 OpenBabel09051719253D

 37 42  0  0  1  0  0  0  0  0999 V2000
    0.1420   -0.0600    0.6550 C   0  0  0  0  0  0  0  0  0  0  0  0
    1.3660    0.1950    1.2840 C   0  0  0  0  0  0  0  0  0  0  0  0
   -0.4780    0.8560   -0.1060 N   0  0  0  0  0  0  0  0  0  0  0  0
    1.9670    1.4530    1.1200 C   0  0  0  0  0  0  0  0  0  0  0  0
    0.0990    2.0670   -0.2580 C   0  0  0  0  0  0  0  0  0  0  0  0
    1.3380    2.4550    0.3290 C   0  0  0  0  0  0  0  0  0  0  0  0
    1.9780    3.8190    0.1410 C   0  0  0  0  0  0  0  0  0  0  0  0
    3.3420    4.0240    0.4740 C   0  0  0  0  0  0  0  0  0  0  0  0
    1.3280    4.9780   -0.3680 C   0  0  0  0  0  0  0  0  0  0  0  0
    4.0000    5.1880    0.3260 N   0  0  0  0  0  0  0  0  0  0  0  0
    0.0240    5.0390   -0.7060 N   0  0  0  0  0  0  0  0  0  0  0  0
    2.0070    6.1870   -0.5160 C   0  0  0  0  0  0  0  0  0  0  0  0
    3.3770    6.2800   -0.1600 C   0  0  0  0  0  0  0  0  0  0  0  0
   -0.2480    6.5680   -1.2070 S   0  0  0  0  0  0  0  0  0  0  0  0
    1.2440    7.1980   -0.9970 N   0  0  0  0  0  0  0  0  0  0  0  0
    4.1710    7.5300   -0.2930 C   0  0  1  0  0  0  0  0  0  0  0  0
    3.5760    9.0990   -0.8830 B   0  0  0  0  0  0  0  0  0  0  0  0
    5.5140    7.6630    0.0280 C   0  0  0  0  0  0  0  0  0  0  0  0
    5.1510    9.8690   -0.6780 C   0  0  0  0  0  0  0  0  0  0  0  0
    6.6490    6.4870    0.6520 S   0  0  0  0  0  0  0  0  0  0  0  0
    6.0340    8.9390   -0.1850 C   0  0  0  0  0  0  0  0  0  0  0  0
    5.4240   11.2520   -0.9790 C   0  0  0  0  0  0  0  0  0  0  0  0
    7.8870    7.7710    0.6290 C   0  0  0  0  0  0  0  0  0  0  0  0
    7.4170    8.9920    0.1680 C   0  0  0  0  0  0  0  0  0  0  0  0
    6.6320   11.7440   -0.7790 C   0  0  0  0  0  0  0  0  0  0  0  0
    4.2220   12.3540   -1.6100 S   0  0  0  0  0  0  0  0  0  0  0  0
    6.6690   13.0750   -1.1300 C   0  0  0  0  0  0  0  0  0  0  0  0
    5.4730   13.5730   -1.5960 C   0  0  0  0  0  0  0  0  0  0  0  0
   -0.3550   -1.0250    0.7590 H   0  0  0  0  0  0  0  0  0  0  0  0
    1.8380   -0.5690    1.8940 H   0  0  0  0  0  0  0  0  0  0  0  0
    2.9020    1.6420    1.6340 H   0  0  0  0  0  0  0  0  0  0  0  0
   -0.4510    2.7260   -0.9200 H   0  0  0  0  0  0  0  0  0  0  0  0
    3.9620    3.2130    0.8470 H   0  0  0  0  0  0  0  0  0  0  0  0
    8.8880    7.5310    0.9610 H   0  0  0  0  0  0  0  0  0  0  0  0
    8.0380    9.8760    0.0890 H   0  0  0  0  0  0  0  0  0  0  0  0
    7.5980   13.6220   -1.0220 H   0  0  0  0  0  0  0  0  0  0  0  0
    5.2500   14.5760   -1.9300 H   0  0  0  0  0  0  0  0  0  0  0  0
  1 29  1  0  0  0  0
  1  2  2  0  0  0  0
  2 30  1  0  0  0  0
  3  1  1  0  0  0  0
  4  2  1  0  0  0  0
  4 31  1  0  0  0  0
  5  3  2  0  0  0  0
  5  6  1  0  0  0  0
  6  4  2  0  0  0  0
  7  6  1  0  0  0  0
  7  8  2  0  0  0  0
  8 33  1  0  0  0  0
  9  7  1  0  0  0  0
 10  8  1  0  0  0  0
 11  9  2  0  0  0  0
 12  9  1  0  0  0  0
 12 13  1  0  0  0  0
 13 10  2  0  0  0  0
 14 15  1  0  0  0  0
 14 11  1  0  0  0  0
 15 12  2  0  0  0  0
 16 13  1  1  0  0  0
 16 18  1  0  0  0  0
 17 19  2  0  0  0  0
 17 16  1  0  0  0  0
 18 20  1  0  0  0  0
 19 21  1  0  0  0  0
 21 18  2  0  0  0  0
 21 24  1  0  0  0  0
 22 25  2  0  0  0  0
 22 19  1  0  0  0  0
 23 20  1  0  0  0  0
 23 34  1  0  0  0  0
 24 23  2  0  0  0  0
 26 28  1  0  0  0  0
 26 22  1  0  0  0  0
 27 36  1  0  0  0  0
 27 25  1  0  0  0  0
 28 27  2  0  0  0  0
 32  5  1  0  0  0  0
 35 24  1  0  0  0  0
 37 28  1  0  0  0  0
M  END
$$$$
scan_sander_basal/min_pdbs/min_pdb_C271_030.pdb
 OpenBabel09051719253D

 37 42  0  0  1  0  0  0  0  0999 V2000
    0.1670   -0.0470    0.5880 C   0  0  0  0  0  0  0  0  0  0  0  0
    1.2270    0.2930    1.4410 C   0  0  0  0  0  0  0  0  0  0  0  0
   -0.2900    0.7850   -0.3650 N   0  0  0  0  0  0  0  0  0  0  0  0
    1.8360    1.5500    1.3000 C   0  0  0  0  0  0  0  0  0  0  0  0
    0.2940    1.9940   -0.4950 C   0  0  0  0  0  0  0  0  0  0  0  0
    1.3720    2.4530    0.3090 C   0  0  0  0  0  0  0  0  0  0  0  0
    2.0130    3.8040    0.1350 C   0  0  0  0  0  0  0  0  0  0  0  0
    3.3810    3.9920    0.4370 C   0  0  0  0  0  0  0  0  0  0  0  0
    1.3430    4.9600   -0.3370 C   0  0  0  0  0  0  0  0  0  0  0  0
    4.0340    5.1610    0.2930 N   0  0  0  0  0  0  0  0  0  0  0  0
    0.0300    5.0040   -0.6410 N   0  0  0  0  0  0  0  0  0  0  0  0
    2.0130    6.1720   -0.4820 C   0  0  0  0  0  0  0  0  0  0  0  0
    3.3930    6.2600   -0.1590 C   0  0  0  0  0  0  0  0  0  0  0  0
   -0.2630    6.5400   -1.1100 S   0  0  0  0  0  0  0  0  0  0  0  0
    1.2290    7.1830   -0.9280 N   0  0  0  0  0  0  0  0  0  0  0  0
    4.1790    7.5150   -0.2910 C   0  0  1  0  0  0  0  0  0  0  0  0
    3.5610    9.0910   -0.8390 B   0  0  0  0  0  0  0  0  0  0  0  0
    5.5290    7.6490   -0.0030 C   0  0  0  0  0  0  0  0  0  0  0  0
    5.1380    9.8650   -0.6620 C   0  0  0  0  0  0  0  0  0  0  0  0
    6.6850    6.4680    0.5710 S   0  0  0  0  0  0  0  0  0  0  0  0
    6.0380    8.9310   -0.2080 C   0  0  0  0  0  0  0  0  0  0  0  0
    5.3970   11.2530   -0.9470 C   0  0  0  0  0  0  0  0  0  0  0  0
    7.9160    7.7580    0.5360 C   0  0  0  0  0  0  0  0  0  0  0  0
    7.4290    8.9840    0.1090 C   0  0  0  0  0  0  0  0  0  0  0  0
    6.6080   11.7480   -0.7710 C   0  0  0  0  0  0  0  0  0  0  0  0
    4.1740   12.3610   -1.5280 S   0  0  0  0  0  0  0  0  0  0  0  0
    6.6300   13.0840   -1.1010 C   0  0  0  0  0  0  0  0  0  0  0  0
    5.4210   13.5840   -1.5260 C   0  0  0  0  0  0  0  0  0  0  0  0
   -0.3300   -1.0130    0.6680 H   0  0  0  0  0  0  0  0  0  0  0  0
    1.5670   -0.4050    2.2000 H   0  0  0  0  0  0  0  0  0  0  0  0
    2.6470    1.8280    1.9670 H   0  0  0  0  0  0  0  0  0  0  0  0
   -0.1000    2.6060   -1.3030 H   0  0  0  0  0  0  0  0  0  0  0  0
    3.9930    3.1620    0.7880 H   0  0  0  0  0  0  0  0  0  0  0  0
    8.9270    7.5170    0.8380 H   0  0  0  0  0  0  0  0  0  0  0  0
    8.0440    9.8720    0.0280 H   0  0  0  0  0  0  0  0  0  0  0  0
    7.5590   13.6340   -1.0080 H   0  0  0  0  0  0  0  0  0  0  0  0
    5.1840   14.5920   -1.8380 H   0  0  0  0  0  0  0  0  0  0  0  0
  1 29  1  0  0  0  0
  1  2  2  0  0  0  0
  2 30  1  0  0  0  0
  3  1  1  0  0  0  0
  4  2  1  0  0  0  0
  4 31  1  0  0  0  0
  5  3  2  0  0  0  0
  5  6  1  0  0  0  0
  6  4  2  0  0  0  0
  7  6  1  0  0  0  0
  7  8  2  0  0  0  0
  8 33  1  0  0  0  0
  9  7  1  0  0  0  0
 10  8  1  0  0  0  0
 11  9  2  0  0  0  0
 12  9  1  0  0  0  0
 12 13  1  0  0  0  0
 13 10  2  0  0  0  0
 14 15  1  0  0  0  0
 14 11  1  0  0  0  0
 15 12  2  0  0  0  0
 16 13  1  1  0  0  0
 16 18  1  0  0  0  0
 17 19  2  0  0  0  0
 17 16  1  0  0  0  0
 18 20  1  0  0  0  0
 19 21  1  0  0  0  0
 21 18  2  0  0  0  0
 21 24  1  0  0  0  0
 22 25  2  0  0  0  0
 22 19  1  0  0  0  0
 23 20  1  0  0  0  0
 23 34  1  0  0  0  0
 24 23  2  0  0  0  0
 26 28  1  0  0  0  0
 26 22  1  0  0  0  0
 27 36  1  0  0  0  0
 27 25  1  0  0  0  0
 28 27  2  0  0  0  0
 32  5  1  0  0  0  0
 35 24  1  0  0  0  0
 37 28  1  0  0  0  0
M  END
$$$$
scan_sander_basal/min_pdbs/min_pdb_C271_045.pdb
 OpenBabel09051719253D

 37 42  0  0  1  0  0  0  0  0999 V2000
    0.1920   -0.0400    0.5440 C   0  0  0  0  0  0  0  0  0  0  0  0
    1.0460    0.3980    1.5690 C   0  0  0  0  0  0  0  0  0  0  0  0
   -0.0600    0.6930   -0.5560 N   0  0  0  0  0  0  0  0  0  0  0  0
    1.6640    1.6530    1.4470 C   0  0  0  0  0  0  0  0  0  0  0  0
    0.5330    1.9000   -0.6700 C   0  0  0  0  0  0  0  0  0  0  0  0
    1.4120    2.4430    0.3010 C   0  0  0  0  0  0  0  0  0  0  0  0
    2.0590    3.7820    0.1300 C   0  0  0  0  0  0  0  0  0  0  0  0
    3.4330    3.9610    0.3990 C   0  0  0  0  0  0  0  0  0  0  0  0
    1.3700    4.9350   -0.3080 C   0  0  0  0  0  0  0  0  0  0  0  0
    4.0750    5.1360    0.2570 N   0  0  0  0  0  0  0  0  0  0  0  0
    0.0530    4.9560   -0.5960 N   0  0  0  0  0  0  0  0  0  0  0  0
    2.0280    6.1510   -0.4530 C   0  0  0  0  0  0  0  0  0  0  0  0
    3.4160    6.2400   -0.1610 C   0  0  0  0  0  0  0  0  0  0  0  0
   -0.2630    6.4960   -1.0390 S   0  0  0  0  0  0  0  0  0  0  0  0
    1.2250    7.1570   -0.8740 N   0  0  0  0  0  0  0  0  0  0  0  0
    4.1910    7.5010   -0.2930 C   0  0  1  0  0  0  0  0  0  0  0  0
    3.5480    9.0810   -0.8000 B   0  0  0  0  0  0  0  0  0  0  0  0
    5.5460    7.6400   -0.0360 C   0  0  0  0  0  0  0  0  0  0  0  0
    5.1240    9.8630   -0.6500 C   0  0  0  0  0  0  0  0  0  0  0  0
    6.7240    6.4590    0.4910 S   0  0  0  0  0  0  0  0  0  0  0  0
    6.0410    8.9290   -0.2330 C   0  0  0  0  0  0  0  0  0  0  0  0
    5.3670   11.2580   -0.9200 C   0  0  0  0  0  0  0  0  0  0  0  0
    7.9450    7.7580    0.4470 C   0  0  0  0  0  0  0  0  0  0  0  0
    7.4390    8.9870    0.0510 C   0  0  0  0  0  0  0  0  0  0  0  0
    6.5780   11.7590   -0.7650 C   0  0  0  0  0  0  0  0  0  0  0  0
    4.1220   12.3660   -1.4530 S   0  0  0  0  0  0  0  0  0  0  0  0
    6.5830   13.1000   -1.0740 C   0  0  0  0  0  0  0  0  0  0  0  0
    5.3600   13.5980   -1.4620 C   0  0  0  0  0  0  0  0  0  0  0  0
   -0.3050   -1.0080    0.6050 H   0  0  0  0  0  0  0  0  0  0  0  0
    1.2210   -0.2240    2.4410 H   0  0  0  0  0  0  0  0  0  0  0  0
    2.3240    2.0150    2.2310 H   0  0  0  0  0  0  0  0  0  0  0  0
    0.3070    2.4540   -1.5790 H   0  0  0  0  0  0  0  0  0  0  0  0
    4.0440    3.1230    0.7330 H   0  0  0  0  0  0  0  0  0  0  0  0
    8.9650    7.5200    0.7200 H   0  0  0  0  0  0  0  0  0  0  0  0
    8.0460    9.8800   -0.0310 H   0  0  0  0  0  0  0  0  0  0  0  0
    7.5100   13.6550   -0.9960 H   0  0  0  0  0  0  0  0  0  0  0  0
    5.1090   14.6090   -1.7520 H   0  0  0  0  0  0  0  0  0  0  0  0
  1 29  1  0  0  0  0
  1  2  2  0  0  0  0
  2 30  1  0  0  0  0
  3  1  1  0  0  0  0
  4  2  1  0  0  0  0
  4 31  1  0  0  0  0
  5  3  2  0  0  0  0
  5  6  1  0  0  0  0
  6  4  2  0  0  0  0
  7  6  1  0  0  0  0
  7  8  2  0  0  0  0
  8 33  1  0  0  0  0
  9  7  1  0  0  0  0
 10  8  1  0  0  0  0
 11  9  2  0  0  0  0
 12  9  1  0  0  0  0
 12 13  1  0  0  0  0
 13 10  2  0  0  0  0
 14 15  1  0  0  0  0
 14 11  1  0  0  0  0
 15 12  2  0  0  0  0
 16 13  1  1  0  0  0
 16 18  1  0  0  0  0
 17 19  2  0  0  0  0
 17 16  1  0  0  0  0
 18 20  1  0  0  0  0
 19 21  1  0  0  0  0
 21 18  2  0  0  0  0
 21 24  1  0  0  0  0
 22 25  2  0  0  0  0
 22 19  1  0  0  0  0
 23 20  1  0  0  0  0
 23 34  1  0  0  0  0
 24 23  2  0  0  0  0
 26 22  1  0  0  0  0
 27 36  1  0  0  0  0
 27 25  1  0  0  0  0
 28 26  1  0  0  0  0
 28 27  2  0  0  0  0
 32  5  1  0  0  0  0
 35 24  1  0  0  0  0
 37 28  1  0  0  0  0
M  END
$$$$
scan_sander_basal/min_pdbs/min_pdb_C271_060.pdb
 OpenBabel09051719253D

 37 42  0  0  1  0  0  0  0  0999 V2000
    0.2370   -0.0550    0.5100 C   0  0  0  0  0  0  0  0  0  0  0  0
    0.8470    0.5030    1.6460 C   0  0  0  0  0  0  0  0  0  0  0  0
    0.2160    0.5670   -0.6850 N   0  0  0  0  0  0  0  0  0  0  0  0
    1.4640    1.7600    1.5380 C   0  0  0  0  0  0  0  0  0  0  0  0
    0.8080    1.7750   -0.7860 C   0  0  0  0  0  0  0  0  0  0  0  0
    1.4540    2.4270    0.2920 C   0  0  0  0  0  0  0  0  0  0  0  0
    2.1020    3.7600    0.1240 C   0  0  0  0  0  0  0  0  0  0  0  0
    3.4800    3.9380    0.3640 C   0  0  0  0  0  0  0  0  0  0  0  0
    1.3960    4.9110   -0.2820 C   0  0  0  0  0  0  0  0  0  0  0  0
    4.1120    5.1190    0.2250 N   0  0  0  0  0  0  0  0  0  0  0  0
    0.0760    4.9170   -0.5520 N   0  0  0  0  0  0  0  0  0  0  0  0
    2.0430    6.1320   -0.4260 C   0  0  0  0  0  0  0  0  0  0  0  0
    3.4370    6.2260   -0.1630 C   0  0  0  0  0  0  0  0  0  0  0  0
   -0.2610    6.4600   -0.9690 S   0  0  0  0  0  0  0  0  0  0  0  0
    1.2230    7.1350   -0.8210 N   0  0  0  0  0  0  0  0  0  0  0  0
    4.2000    7.4940   -0.2930 C   0  0  1  0  0  0  0  0  0  0  0  0
    3.5360    9.0760   -0.7640 B   0  0  0  0  0  0  0  0  0  0  0  0
    5.5590    7.6380   -0.0640 C   0  0  0  0  0  0  0  0  0  0  0  0
    5.1090    9.8670   -0.6370 C   0  0  0  0  0  0  0  0  0  0  0  0
    6.7570    6.4580    0.4200 S   0  0  0  0  0  0  0  0  0  0  0  0
    6.0410    8.9330   -0.2530 C   0  0  0  0  0  0  0  0  0  0  0  0
    5.3360   11.2670   -0.8910 C   0  0  0  0  0  0  0  0  0  0  0  0
    7.9670    7.7660    0.3680 C   0  0  0  0  0  0  0  0  0  0  0  0
    7.4450    8.9970    0.0010 C   0  0  0  0  0  0  0  0  0  0  0  0
    6.5470   11.7740   -0.7560 C   0  0  0  0  0  0  0  0  0  0  0  0
    4.0730   12.3730   -1.3810 S   0  0  0  0  0  0  0  0  0  0  0  0
    6.5360   13.1200   -1.0460 C   0  0  0  0  0  0  0  0  0  0  0  0
    5.3010   13.6140   -1.4000 C   0  0  0  0  0  0  0  0  0  0  0  0
   -0.2520   -1.0280    0.5580 H   0  0  0  0  0  0  0  0  0  0  0  0
    0.8390   -0.0310    2.5920 H   0  0  0  0  0  0  0  0  0  0  0  0
    1.9410    2.2160    2.4010 H   0  0  0  0  0  0  0  0  0  0  0  0
    0.7690    2.2460   -1.7670 H   0  0  0  0  0  0  0  0  0  0  0  0
    4.0990    3.0970    0.6770 H   0  0  0  0  0  0  0  0  0  0  0  0
    8.9940    7.5310    0.6150 H   0  0  0  0  0  0  0  0  0  0  0  0
    8.0440    9.8960   -0.0810 H   0  0  0  0  0  0  0  0  0  0  0  0
    7.4610   13.6800   -0.9800 H   0  0  0  0  0  0  0  0  0  0  0  0
    5.0370   14.6280   -1.6690 H   0  0  0  0  0  0  0  0  0  0  0  0
  1 29  1  0  0  0  0
  1  2  2  0  0  0  0
  2 30  1  0  0  0  0
  3  1  1  0  0  0  0
  4  2  1  0  0  0  0
  4 31  1  0  0  0  0
  5  3  2  0  0  0  0
  5  6  1  0  0  0  0
  6  4  2  0  0  0  0
  7  6  1  0  0  0  0
  7  8  2  0  0  0  0
  8 33  1  0  0  0  0
  9  7  1  0  0  0  0
 10  8  1  0  0  0  0
 11  9  2  0  0  0  0
 12  9  1  0  0  0  0
 12 13  1  0  0  0  0
 13 10  2  0  0  0  0
 14 15  1  0  0  0  0
 14 11  1  0  0  0  0
 15 12  2  0  0  0  0
 16 13  1  1  0  0  0
 16 18  1  0  0  0  0
 17 19  2  0  0  0  0
 17 16  1  0  0  0  0
 18 20  1  0  0  0  0
 19 21  1  0  0  0  0
 21 18  2  0  0  0  0
 21 24  1  0  0  0  0
 22 25  2  0  0  0  0
 22 19  1  0  0  0  0
 23 20  1  0  0  0  0
 23 34  1  0  0  0  0
 24 23  2  0  0  0  0
 26 22  1  0  0  0  0
 27 36  1  0  0  0  0
 27 25  1  0  0  0  0
 28 26  1  0  0  0  0
 28 27  2  0  0  0  0
 32  5  1  0  0  0  0
 35 24  1  0  0  0  0
 37 28  1  0  0  0  0
M  END
$$$$
scan_sander_basal/min_pdbs/min_pdb_C271_075.pdb
 OpenBabel09051719253D

 37 42  0  0  1  0  0  0  0  0999 V2000
    0.3010   -0.0840    0.4910 C   0  0  0  0  0  0  0  0  0  0  0  0
    0.6440    0.6020    1.6680 C   0  0  0  0  0  0  0  0  0  0  0  0
    0.5260    0.4200   -0.7390 N   0  0  0  0  0  0  0  0  0  0  0  0
    1.2480    1.8660    1.5660 C   0  0  0  0  0  0  0  0  0  0  0  0
    1.1050    1.6350   -0.8340 C   0  0  0  0  0  0  0  0  0  0  0  0
    1.4930    2.4090    0.2850 C   0  0  0  0  0  0  0  0  0  0  0  0
    2.1360    3.7420    0.1210 C   0  0  0  0  0  0  0  0  0  0  0  0
    3.5170    3.9220    0.3350 C   0  0  0  0  0  0  0  0  0  0  0  0
    1.4160    4.8930   -0.2550 C   0  0  0  0  0  0  0  0  0  0  0  0
    4.1400    5.1090    0.1990 N   0  0  0  0  0  0  0  0  0  0  0  0
    0.0910    4.8920   -0.5000 N   0  0  0  0  0  0  0  0  0  0  0  0
    2.0520    6.1200   -0.3970 C   0  0  0  0  0  0  0  0  0  0  0  0
    3.4510    6.2170   -0.1610 C   0  0  0  0  0  0  0  0  0  0  0  0
   -0.2630    6.4370   -0.8930 S   0  0  0  0  0  0  0  0  0  0  0  0
    1.2190    7.1220   -0.7640 N   0  0  0  0  0  0  0  0  0  0  0  0
    4.2040    7.4900   -0.2920 C   0  0  1  0  0  0  0  0  0  0  0  0
    3.5220    9.0740   -0.7280 B   0  0  0  0  0  0  0  0  0  0  0  0
    5.5680    7.6400   -0.0880 C   0  0  0  0  0  0  0  0  0  0  0  0
    5.0930    9.8730   -0.6240 C   0  0  0  0  0  0  0  0  0  0  0  0
    6.7810    6.4610    0.3560 S   0  0  0  0  0  0  0  0  0  0  0  0
    6.0390    8.9400   -0.2720 C   0  0  0  0  0  0  0  0  0  0  0  0
    5.3080   11.2770   -0.8660 C   0  0  0  0  0  0  0  0  0  0  0  0
    7.9830    7.7760    0.2960 C   0  0  0  0  0  0  0  0  0  0  0  0
    7.4470    9.0080   -0.0450 C   0  0  0  0  0  0  0  0  0  0  0  0
    6.5190   11.7890   -0.7490 C   0  0  0  0  0  0  0  0  0  0  0  0
    4.0290   12.3820   -1.3160 S   0  0  0  0  0  0  0  0  0  0  0  0
    6.4950   13.1380   -1.0230 C   0  0  0  0  0  0  0  0  0  0  0  0
    5.2510   13.6300   -1.3450 C   0  0  0  0  0  0  0  0  0  0  0  0
   -0.1690   -1.0660    0.5320 H   0  0  0  0  0  0  0  0  0  0  0  0
    0.4430    0.1600    2.6390 H   0  0  0  0  0  0  0  0  0  0  0  0
    1.5220    2.4210    2.4590 H   0  0  0  0  0  0  0  0  0  0  0  0
    1.2680    2.0100   -1.8430 H   0  0  0  0  0  0  0  0  0  0  0  0
    4.1450    3.0800    0.6270 H   0  0  0  0  0  0  0  0  0  0  0  0
    9.0170    7.5430    0.5190 H   0  0  0  0  0  0  0  0  0  0  0  0
    8.0390    9.9110   -0.1280 H   0  0  0  0  0  0  0  0  0  0  0  0
    7.4180   13.7030   -0.9690 H   0  0  0  0  0  0  0  0  0  0  0  0
    4.9760   14.6450   -1.5970 H   0  0  0  0  0  0  0  0  0  0  0  0
  1 29  1  0  0  0  0
  1  2  2  0  0  0  0
  2 30  1  0  0  0  0
  3  1  1  0  0  0  0
  4  2  1  0  0  0  0
  4 31  1  0  0  0  0
  5  3  2  0  0  0  0
  5  6  1  0  0  0  0
  6  4  2  0  0  0  0
  7  6  1  0  0  0  0
  7  8  2  0  0  0  0
  8 33  1  0  0  0  0
  9  7  1  0  0  0  0
 10  8  1  0  0  0  0
 11  9  2  0  0  0  0
 12  9  1  0  0  0  0
 12 13  1  0  0  0  0
 13 10  2  0  0  0  0
 14 15  1  0  0  0  0
 14 11  1  0  0  0  0
 15 12  2  0  0  0  0
 16 13  1  1  0  0  0
 16 18  1  0  0  0  0
 17 19  2  0  0  0  0
 17 16  1  0  0  0  0
 18 20  1  0  0  0  0
 19 21  1  0  0  0  0
 21 18  2  0  0  0  0
 21 24  1  0  0  0  0
 22 25  2  0  0  0  0
 22 19  1  0  0  0  0
 23 20  1  0  0  0  0
 23 34  1  0  0  0  0
 24 23  2  0  0  0  0
 26 22  1  0  0  0  0
 27 36  1  0  0  0  0
 27 25  1  0  0  0  0
 28 26  1  0  0  0  0
 28 27  2  0  0  0  0
 32  5  1  0  0  0  0
 35 24  1  0  0  0  0
 37 28  1  0  0  0  0
M  END
$$$$
scan_sander_basal/min_pdbs/min_pdb_C271_090.pdb
 OpenBabel09051719253D

 37 42  0  0  1  0  0  0  0  0999 V2000
    0.3680   -0.1150    0.4960 C   0  0  0  0  0  0  0  0  0  0  0  0
    0.4460    0.6910    1.6440 C   0  0  0  0  0  0  0  0  0  0  0  0
    0.8330    0.2790   -0.7060 N   0  0  0  0  0  0  0  0  0  0  0  0
    1.0320    1.9630    1.5410 C   0  0  0  0  0  0  0  0  0  0  0  0
    1.3940    1.5020   -0.8020 C   0  0  0  0  0  0  0  0  0  0  0  0
    1.5260    2.3930    0.2900 C   0  0  0  0  0  0  0  0  0  0  0  0
    2.1610    3.7290    0.1270 C   0  0  0  0  0  0  0  0  0  0  0  0
    3.5480    3.9100    0.3060 C   0  0  0  0  0  0  0  0  0  0  0  0
    1.4280    4.8830   -0.2130 C   0  0  0  0  0  0  0  0  0  0  0  0
    4.1640    5.1010    0.1680 N   0  0  0  0  0  0  0  0  0  0  0  0
    0.0970    4.8810   -0.4200 N   0  0  0  0  0  0  0  0  0  0  0  0
    2.0570    6.1130   -0.3560 C   0  0  0  0  0  0  0  0  0  0  0  0
    3.4620    6.2110   -0.1580 C   0  0  0  0  0  0  0  0  0  0  0  0
   -0.2720    6.4300   -0.7840 S   0  0  0  0  0  0  0  0  0  0  0  0
    1.2110    7.1180   -0.6860 N   0  0  0  0  0  0  0  0  0  0  0  0
    4.2080    7.4890   -0.2920 C   0  0  1  0  0  0  0  0  0  0  0  0
    3.5100    9.0760   -0.6880 B   0  0  0  0  0  0  0  0  0  0  0  0
    5.5760    7.6400   -0.1240 C   0  0  0  0  0  0  0  0  0  0  0  0
    5.0810    9.8780   -0.6150 C   0  0  0  0  0  0  0  0  0  0  0  0
    6.8040    6.4580    0.2710 S   0  0  0  0  0  0  0  0  0  0  0  0
    6.0380    8.9430   -0.3020 C   0  0  0  0  0  0  0  0  0  0  0  0
    5.2850   11.2870   -0.8430 C   0  0  0  0  0  0  0  0  0  0  0  0
    8.0010    7.7780    0.1950 C   0  0  0  0  0  0  0  0  0  0  0  0
    7.4520    9.0130   -0.1140 C   0  0  0  0  0  0  0  0  0  0  0  0
    6.4970   11.8010   -0.7530 C   0  0  0  0  0  0  0  0  0  0  0  0
    3.9910   12.3940   -1.2420 S   0  0  0  0  0  0  0  0  0  0  0  0
    6.4610   13.1530   -1.0060 C   0  0  0  0  0  0  0  0  0  0  0  0
    5.2080   13.6460   -1.2870 C   0  0  0  0  0  0  0  0  0  0  0  0
   -0.0800   -1.1070    0.5390 H   0  0  0  0  0  0  0  0  0  0  0  0
    0.0570    0.3350    2.5930 H   0  0  0  0  0  0  0  0  0  0  0  0
    1.1040    2.6110    2.4110 H   0  0  0  0  0  0  0  0  0  0  0  0
    1.7560    1.7880   -1.7890 H   0  0  0  0  0  0  0  0  0  0  0  0
    4.1850    3.0660    0.5700 H   0  0  0  0  0  0  0  0  0  0  0  0
    9.0400    7.5450    0.3860 H   0  0  0  0  0  0  0  0  0  0  0  0
    8.0390    9.9190   -0.2010 H   0  0  0  0  0  0  0  0  0  0  0  0
    7.3840   13.7200   -0.9690 H   0  0  0  0  0  0  0  0  0  0  0  0
    4.9230   14.6640   -1.5160 H   0  0  0  0  0  0  0  0  0  0  0  0
  1 29  1  0  0  0  0
  1  2  2  0  0  0  0
  2 30  1  0  0  0  0
  3  1  1  0  0  0  0
  4  2  1  0  0  0  0
  4 31  1  0  0  0  0
  5  3  2  0  0  0  0
  5  6  1  0  0  0  0
  6  4  2  0  0  0  0
  7  6  1  0  0  0  0
  7  8  2  0  0  0  0
  8 33  1  0  0  0  0
  9  7  1  0  0  0  0
 10  8  1  0  0  0  0
 11  9  2  0  0  0  0
 12  9  1  0  0  0  0
 12 13  1  0  0  0  0
 13 10  2  0  0  0  0
 14 15  1  0  0  0  0
 14 11  1  0  0  0  0
 15 12  2  0  0  0  0
 16 13  1  1  0  0  0
 16 18  1  0  0  0  0
 17 19  2  0  0  0  0
 17 16  1  0  0  0  0
 18 20  1  0  0  0  0
 19 21  1  0  0  0  0
 21 18  2  0  0  0  0
 21 24  1  0  0  0  0
 22 25  2  0  0  0  0
 22 19  1  0  0  0  0
 23 20  1  0  0  0  0
 23 34  1  0  0  0  0
 24 23  2  0  0  0  0
 26 22  1  0  0  0  0
 27 36  1  0  0  0  0
 27 25  1  0  0  0  0
 28 26  1  0  0  0  0
 28 27  2  0  0  0  0
 32  5  1  0  0  0  0
 35 24  1  0  0  0  0
 37 28  1  0  0  0  0
M  END
$$$$
scan_sander_basal/min_pdbs/min_pdb_C271_105.pdb
 OpenBabel09051719253D

 37 42  0  0  1  0  0  0  0  0999 V2000
    0.4400   -0.1490    0.5150 C   0  0  0  0  0  0  0  0  0  0  0  0
    0.2580    0.7630    1.5690 C   0  0  0  0  0  0  0  0  0  0  0  0
    1.1360    0.1530   -0.5980 N   0  0  0  0  0  0  0  0  0  0  0  0
    0.8220    2.0450    1.4620 C   0  0  0  0  0  0  0  0  0  0  0  0
    1.6760    1.3850   -0.6980 C   0  0  0  0  0  0  0  0  0  0  0  0
    1.5560    2.3790    0.3020 C   0  0  0  0  0  0  0  0  0  0  0  0
    2.1820    3.7200    0.1410 C   0  0  0  0  0  0  0  0  0  0  0  0
    3.5720    3.9030    0.2840 C   0  0  0  0  0  0  0  0  0  0  0  0
    1.4370    4.8770   -0.1650 C   0  0  0  0  0  0  0  0  0  0  0  0
    4.1820    5.0960    0.1440 N   0  0  0  0  0  0  0  0  0  0  0  0
    0.1010    4.8750   -0.3370 N   0  0  0  0  0  0  0  0  0  0  0  0
    2.0600    6.1100   -0.3110 C   0  0  0  0  0  0  0  0  0  0  0  0
    3.4690    6.2090   -0.1500 C   0  0  0  0  0  0  0  0  0  0  0  0
   -0.2800    6.4280   -0.6730 S   0  0  0  0  0  0  0  0  0  0  0  0
    1.2040    7.1160   -0.6070 N   0  0  0  0  0  0  0  0  0  0  0  0
    4.2090    7.4900   -0.2890 C   0  0  1  0  0  0  0  0  0  0  0  0
    3.4980    9.0800   -0.6470 B   0  0  0  0  0  0  0  0  0  0  0  0
    5.5810    7.6410   -0.1570 C   0  0  0  0  0  0  0  0  0  0  0  0
    5.0690    9.8840   -0.6090 C   0  0  0  0  0  0  0  0  0  0  0  0
    6.8210    6.4580    0.1910 S   0  0  0  0  0  0  0  0  0  0  0  0
    6.0360    8.9480   -0.3330 C   0  0  0  0  0  0  0  0  0  0  0  0
    5.2640   11.2950   -0.8270 C   0  0  0  0  0  0  0  0  0  0  0  0
    8.0130    7.7810    0.0980 C   0  0  0  0  0  0  0  0  0  0  0  0
    7.4540    9.0180   -0.1820 C   0  0  0  0  0  0  0  0  0  0  0  0
    6.4780   11.8110   -0.7640 C   0  0  0  0  0  0  0  0  0  0  0  0
    3.9580   12.4040   -1.1780 S   0  0  0  0  0  0  0  0  0  0  0  0
    6.4330   13.1660   -1.0010 C   0  0  0  0  0  0  0  0  0  0  0  0
    5.1710   13.6590   -1.2420 C   0  0  0  0  0  0  0  0  0  0  0  0
    0.0150   -1.1510    0.5640 H   0  0  0  0  0  0  0  0  0  0  0  0
   -0.3130    0.4800    2.4480 H   0  0  0  0  0  0  0  0  0  0  0  0
    0.6960    2.7730    2.2590 H   0  0  0  0  0  0  0  0  0  0  0  0
    2.2290    1.5930   -1.6130 H   0  0  0  0  0  0  0  0  0  0  0  0
    4.2180    3.0580    0.5210 H   0  0  0  0  0  0  0  0  0  0  0  0
    9.0580    7.5480    0.2580 H   0  0  0  0  0  0  0  0  0  0  0  0
    8.0370    9.9260   -0.2750 H   0  0  0  0  0  0  0  0  0  0  0  0
    7.3550   13.7340   -0.9830 H   0  0  0  0  0  0  0  0  0  0  0  0
    4.8790   14.6790   -1.4520 H   0  0  0  0  0  0  0  0  0  0  0  0
  1 29  1  0  0  0  0
  1  2  2  0  0  0  0
  2 30  1  0  0  0  0
  3  1  1  0  0  0  0
  4  2  1  0  0  0  0
  4 31  1  0  0  0  0
  5  3  2  0  0  0  0
  5  6  1  0  0  0  0
  6  4  2  0  0  0  0
  7  8  2  0  0  0  0
  7  6  1  0  0  0  0
  8 33  1  0  0  0  0
  9  7  1  0  0  0  0
 10  8  1  0  0  0  0
 11  9  2  0  0  0  0
 12  9  1  0  0  0  0
 12 13  1  0  0  0  0
 13 10  2  0  0  0  0
 14 15  1  0  0  0  0
 14 11  1  0  0  0  0
 15 12  2  0  0  0  0
 16 18  1  0  0  0  0
 16 13  1  1  0  0  0
 17 19  2  0  0  0  0
 17 16  1  0  0  0  0
 18 20  1  0  0  0  0
 19 21  1  0  0  0  0
 21 24  1  0  0  0  0
 21 18  2  0  0  0  0
 22 25  2  0  0  0  0
 22 19  1  0  0  0  0
 23 20  1  0  0  0  0
 23 34  1  0  0  0  0
 24 23  2  0  0  0  0
 26 22  1  0  0  0  0
 27 36  1  0  0  0  0
 27 25  1  0  0  0  0
 28 26  1  0  0  0  0
 28 27  2  0  0  0  0
 32  5  1  0  0  0  0
 35 24  1  0  0  0  0
 37 28  1  0  0  0  0
M  END
$$$$
scan_sander_basal/min_pdbs/min_pdb_C271_120.pdb
 OpenBabel09051719253D

 37 42  0  0  1  0  0  0  0  0999 V2000
    0.5110   -0.1820    0.5520 C   0  0  0  0  0  0  0  0  0  0  0  0
    0.0890    0.8130    1.4500 C   0  0  0  0  0  0  0  0  0  0  0  0
    1.4160    0.0500   -0.4190 N   0  0  0  0  0  0  0  0  0  0  0  0
    0.6280    2.1040    1.3350 C   0  0  0  0  0  0  0  0  0  0  0  0
    1.9310    1.2920   -0.5280 C   0  0  0  0  0  0  0  0  0  0  0  0
    1.5780    2.3670    0.3220 C   0  0  0  0  0  0  0  0  0  0  0  0
    2.1920    3.7160    0.1600 C   0  0  0  0  0  0  0  0  0  0  0  0
    3.5870    3.9000    0.2640 C   0  0  0  0  0  0  0  0  0  0  0  0
    1.4400    4.8770   -0.1150 C   0  0  0  0  0  0  0  0  0  0  0  0
    4.1920    5.0950    0.1200 N   0  0  0  0  0  0  0  0  0  0  0  0
    0.1000    4.8800   -0.2550 N   0  0  0  0  0  0  0  0  0  0  0  0
    2.0600    6.1120   -0.2660 C   0  0  0  0  0  0  0  0  0  0  0  0
    3.4720    6.2100   -0.1420 C   0  0  0  0  0  0  0  0  0  0  0  0
   -0.2890    6.4360   -0.5670 S   0  0  0  0  0  0  0  0  0  0  0  0
    1.1970    7.1220   -0.5300 N   0  0  0  0  0  0  0  0  0  0  0  0
    4.2080    7.4920   -0.2880 C   0  0  1  0  0  0  0  0  0  0  0  0
    3.4880    9.0870   -0.6090 B   0  0  0  0  0  0  0  0  0  0  0  0
    5.5830    7.6430   -0.1910 C   0  0  0  0  0  0  0  0  0  0  0  0
    5.0600    9.8900   -0.6050 C   0  0  0  0  0  0  0  0  0  0  0  0
    6.8330    6.4550    0.1100 S   0  0  0  0  0  0  0  0  0  0  0  0
    6.0340    8.9510   -0.3650 C   0  0  0  0  0  0  0  0  0  0  0  0
    5.2500   11.3040   -0.8120 C   0  0  0  0  0  0  0  0  0  0  0  0
    8.0220    7.7790   -0.0010 C   0  0  0  0  0  0  0  0  0  0  0  0
    7.4560    9.0200   -0.2520 C   0  0  0  0  0  0  0  0  0  0  0  0
    6.4650   11.8190   -0.7760 C   0  0  0  0  0  0  0  0  0  0  0  0
    3.9350   12.4170   -1.1150 S   0  0  0  0  0  0  0  0  0  0  0  0
    6.4140   13.1770   -0.9970 C   0  0  0  0  0  0  0  0  0  0  0  0
    5.1460   13.6720   -1.1980 C   0  0  0  0  0  0  0  0  0  0  0  0
    0.1130   -1.1950    0.6110 H   0  0  0  0  0  0  0  0  0  0  0  0
   -0.6440    0.5840    2.2180 H   0  0  0  0  0  0  0  0  0  0  0  0
    0.3190    2.8940    2.0140 H   0  0  0  0  0  0  0  0  0  0  0  0
    2.6570    1.4390   -1.3260 H   0  0  0  0  0  0  0  0  0  0  0  0
    4.2410    3.0540    0.4750 H   0  0  0  0  0  0  0  0  0  0  0  0
    9.0710    7.5450    0.1280 H   0  0  0  0  0  0  0  0  0  0  0  0
    8.0360    9.9290   -0.3500 H   0  0  0  0  0  0  0  0  0  0  0  0
    7.3360   13.7450   -0.9980 H   0  0  0  0  0  0  0  0  0  0  0  0
    4.8480   14.6940   -1.3890 H   0  0  0  0  0  0  0  0  0  0  0  0
  1 29  1  0  0  0  0
  1  2  2  0  0  0  0
  2 30  1  0  0  0  0
  3  1  1  0  0  0  0
  4  2  1  0  0  0  0
  4 31  1  0  0  0  0
  5  3  2  0  0  0  0
  5  6  1  0  0  0  0
  6  4  2  0  0  0  0
  7  8  2  0  0  0  0
  7  6  1  0  0  0  0
  8 33  1  0  0  0  0
  9  7  1  0  0  0  0
 10  8  1  0  0  0  0
 11  9  2  0  0  0  0
 12 13  1  0  0  0  0
 12  9  1  0  0  0  0
 13 10  2  0  0  0  0
 14 15  1  0  0  0  0
 14 11  1  0  0  0  0
 15 12  2  0  0  0  0
 16 18  1  0  0  0  0
 16 13  1  1  0  0  0
 17 19  2  0  0  0  0
 17 16  1  0  0  0  0
 18 20  1  0  0  0  0
 19 21  1  0  0  0  0
 21 24  1  0  0  0  0
 21 18  2  0  0  0  0
 22 25  2  0  0  0  0
 22 19  1  0  0  0  0
 23 20  1  0  0  0  0
 23 34  1  0  0  0  0
 24 23  2  0  0  0  0
 26 22  1  0  0  0  0
 27 25  1  0  0  0  0
 28 26  1  0  0  0  0
 28 27  2  0  0  0  0
 32  5  1  0  0  0  0
 35 24  1  0  0  0  0
 36 27  1  0  0  0  0
 37 28  1  0  0  0  0
M  END
$$$$
scan_sander_basal/min_pdbs/min_pdb_C271_135.pdb
 OpenBabel09051719253D

 37 42  0  0  1  0  0  0  0  0999 V2000
    0.5830   -0.2180    0.6040 C   0  0  0  0  0  0  0  0  0  0  0  0
   -0.0450    0.8260    1.3020 C   0  0  0  0  0  0  0  0  0  0  0  0
    1.6580   -0.0220   -0.1830 N   0  0  0  0  0  0  0  0  0  0  0  0
    0.4620    2.1290    1.1760 C   0  0  0  0  0  0  0  0  0  0  0  0
    2.1420    1.2310   -0.3030 C   0  0  0  0  0  0  0  0  0  0  0  0
    1.5880    2.3600    0.3500 C   0  0  0  0  0  0  0  0  0  0  0  0
    2.1880    3.7210    0.1820 C   0  0  0  0  0  0  0  0  0  0  0  0
    3.5860    3.9040    0.2380 C   0  0  0  0  0  0  0  0  0  0  0  0
    1.4310    4.8900   -0.0580 C   0  0  0  0  0  0  0  0  0  0  0  0
    4.1910    5.0980    0.0890 N   0  0  0  0  0  0  0  0  0  0  0  0
    0.0880    4.9050   -0.1700 N   0  0  0  0  0  0  0  0  0  0  0  0
    2.0520    6.1250   -0.2160 C   0  0  0  0  0  0  0  0  0  0  0  0
    3.4670    6.2170   -0.1360 C   0  0  0  0  0  0  0  0  0  0  0  0
   -0.3010    6.4650   -0.4560 S   0  0  0  0  0  0  0  0  0  0  0  0
    1.1880    7.1420   -0.4480 N   0  0  0  0  0  0  0  0  0  0  0  0
    4.2040    7.4990   -0.2880 C   0  0  1  0  0  0  0  0  0  0  0  0
    3.4810    9.1000   -0.5660 B   0  0  0  0  0  0  0  0  0  0  0  0
    5.5820    7.6430   -0.2330 C   0  0  0  0  0  0  0  0  0  0  0  0
    5.0550    9.8980   -0.6010 C   0  0  0  0  0  0  0  0  0  0  0  0
    6.8350    6.4480    0.0130 S   0  0  0  0  0  0  0  0  0  0  0  0
    6.0320    8.9520   -0.4040 C   0  0  0  0  0  0  0  0  0  0  0  0
    5.2440   11.3140   -0.7950 C   0  0  0  0  0  0  0  0  0  0  0  0
    8.0260    7.7680   -0.1180 C   0  0  0  0  0  0  0  0  0  0  0  0
    7.4570    9.0140   -0.3350 C   0  0  0  0  0  0  0  0  0  0  0  0
    6.4620   11.8230   -0.7910 C   0  0  0  0  0  0  0  0  0  0  0  0
    3.9250   12.4350   -1.0420 S   0  0  0  0  0  0  0  0  0  0  0  0
    6.4090   13.1840   -0.9920 C   0  0  0  0  0  0  0  0  0  0  0  0
    5.1380   13.6880   -1.1460 C   0  0  0  0  0  0  0  0  0  0  0  0
    0.2170   -1.2410    0.6790 H   0  0  0  0  0  0  0  0  0  0  0  0
   -0.9080    0.6260    1.9300 H   0  0  0  0  0  0  0  0  0  0  0  0
   -0.0040    2.9510    1.7140 H   0  0  0  0  0  0  0  0  0  0  0  0
    3.0090    1.3430   -0.9530 H   0  0  0  0  0  0  0  0  0  0  0  0
    4.2480    3.0560    0.4190 H   0  0  0  0  0  0  0  0  0  0  0  0
    9.0770    7.5290   -0.0250 H   0  0  0  0  0  0  0  0  0  0  0  0
    8.0380    9.9220   -0.4400 H   0  0  0  0  0  0  0  0  0  0  0  0
    7.3340   13.7490   -1.0140 H   0  0  0  0  0  0  0  0  0  0  0  0
    4.8390   14.7130   -1.3150 H   0  0  0  0  0  0  0  0  0  0  0  0
  1 29  1  0  0  0  0
  1  2  2  0  0  0  0
  2 30  1  0  0  0  0
  3  1  1  0  0  0  0
  4  2  1  0  0  0  0
  4 31  1  0  0  0  0
  5  3  2  0  0  0  0
  5  6  1  0  0  0  0
  6  4  2  0  0  0  0
  7  8  2  0  0  0  0
  7  6  1  0  0  0  0
  8 33  1  0  0  0  0
  9  7  1  0  0  0  0
 10  8  1  0  0  0  0
 11  9  2  0  0  0  0
 12 13  1  0  0  0  0
 12  9  1  0  0  0  0
 13 10  2  0  0  0  0
 14 15  1  0  0  0  0
 14 11  1  0  0  0  0
 15 12  2  0  0  0  0
 16 18  1  0  0  0  0
 16 13  1  1  0  0  0
 17 16  1  0  0  0  0
 18 20  1  0  0  0  0
 19 17  2  0  0  0  0
 19 21  1  0  0  0  0
 21 24  1  0  0  0  0
 21 18  2  0  0  0  0
 22 25  2  0  0  0  0
 22 19  1  0  0  0  0
 23 34  1  0  0  0  0
 23 20  1  0  0  0  0
 24 23  2  0  0  0  0
 26 22  1  0  0  0  0
 27 25  1  0  0  0  0
 28 26  1  0  0  0  0
 28 27  2  0  0  0  0
 32  5  1  0  0  0  0
 35 24  1  0  0  0  0
 36 27  1  0  0  0  0
 37 28  1  0  0  0  0
M  END
$$$$
scan_sander_basal/min_pdbs/min_pdb_C271_150.pdb
 OpenBabel09051719253D

 37 42  0  0  1  0  0  0  0  0999 V2000
    0.6490   -0.2580    0.6670 C   0  0  0  0  0  0  0  0  0  0  0  0
   -0.1420    0.8020    1.1330 C   0  0  0  0  0  0  0  0  0  0  0  0
    1.8490   -0.0650    0.0910 N   0  0  0  0  0  0  0  0  0  0  0  0
    0.3280    2.1170    0.9920 C   0  0  0  0  0  0  0  0  0  0  0  0
    2.2990    1.2000   -0.0420 C   0  0  0  0  0  0  0  0  0  0  0  0
    1.5870    2.3530    0.3820 C   0  0  0  0  0  0  0  0  0  0  0  0
    2.1710    3.7290    0.2020 C   0  0  0  0  0  0  0  0  0  0  0  0
    3.5730    3.9140    0.2010 C   0  0  0  0  0  0  0  0  0  0  0  0
    1.4150    4.9130    0.0020 C   0  0  0  0  0  0  0  0  0  0  0  0
    4.1800    5.1060    0.0480 N   0  0  0  0  0  0  0  0  0  0  0  0
    0.0700    4.9490   -0.0850 N   0  0  0  0  0  0  0  0  0  0  0  0
    2.0400    6.1460   -0.1630 C   0  0  0  0  0  0  0  0  0  0  0  0
    3.4570    6.2320   -0.1330 C   0  0  0  0  0  0  0  0  0  0  0  0
   -0.3140    6.5150   -0.3380 S   0  0  0  0  0  0  0  0  0  0  0  0
    1.1810    7.1750   -0.3590 N   0  0  0  0  0  0  0  0  0  0  0  0
    4.1970    7.5110   -0.2900 C   0  0  1  0  0  0  0  0  0  0  0  0
    3.4770    9.1220   -0.5170 B   0  0  0  0  0  0  0  0  0  0  0  0
    5.5770    7.6450   -0.2820 C   0  0  0  0  0  0  0  0  0  0  0  0
    5.0550    9.9090   -0.5950 C   0  0  0  0  0  0  0  0  0  0  0  0
    6.8290    6.4370   -0.1000 S   0  0  0  0  0  0  0  0  0  0  0  0
    6.0310    8.9530   -0.4480 C   0  0  0  0  0  0  0  0  0  0  0  0
    5.2480   11.3260   -0.7730 C   0  0  0  0  0  0  0  0  0  0  0  0
    8.0250    7.7510   -0.2520 C   0  0  0  0  0  0  0  0  0  0  0  0
    7.4580    9.0040   -0.4290 C   0  0  0  0  0  0  0  0  0  0  0  0
    6.4690   11.8270   -0.8040 C   0  0  0  0  0  0  0  0  0  0  0  0
    3.9290   12.4610   -0.9550 S   0  0  0  0  0  0  0  0  0  0  0  0
    6.4190   13.1920   -0.9810 C   0  0  0  0  0  0  0  0  0  0  0  0
    5.1470   13.7060   -1.0820 C   0  0  0  0  0  0  0  0  0  0  0  0
    0.3160   -1.2910    0.7600 H   0  0  0  0  0  0  0  0  0  0  0  0
   -1.1020    0.6050    1.6020 H   0  0  0  0  0  0  0  0  0  0  0  0
   -0.2680    2.9360    1.3790 H   0  0  0  0  0  0  0  0  0  0  0  0
    3.2680    1.2960   -0.5280 H   0  0  0  0  0  0  0  0  0  0  0  0
    4.2450    3.0700    0.3550 H   0  0  0  0  0  0  0  0  0  0  0  0
    9.0770    7.5030   -0.2010 H   0  0  0  0  0  0  0  0  0  0  0  0
    8.0410    9.9100   -0.5400 H   0  0  0  0  0  0  0  0  0  0  0  0
    7.3470   13.7500   -1.0270 H   0  0  0  0  0  0  0  0  0  0  0  0
    4.8500   14.7360   -1.2230 H   0  0  0  0  0  0  0  0  0  0  0  0
  1 29  1  0  0  0  0
  1  2  2  0  0  0  0
  2 30  1  0  0  0  0
  3  1  1  0  0  0  0
  4  2  1  0  0  0  0
  4 31  1  0  0  0  0
  5  3  2  0  0  0  0
  5  6  1  0  0  0  0
  6  4  2  0  0  0  0
  7  6  1  0  0  0  0
  8  7  2  0  0  0  0
  8 33  1  0  0  0  0
  9  7  1  0  0  0  0
 10  8  1  0  0  0  0
 11  9  2  0  0  0  0
 12 13  1  0  0  0  0
 12  9  1  0  0  0  0
 13 10  2  0  0  0  0
 14 11  1  0  0  0  0
 15 14  1  0  0  0  0
 15 12  2  0  0  0  0
 16 18  1  0  0  0  0
 16 13  1  1  0  0  0
 17 16  1  0  0  0  0
 18 20  1  0  0  0  0
 19 17  2  0  0  0  0
 19 21  1  0  0  0  0
 21 24  1  0  0  0  0
 21 18  2  0  0  0  0
 22 19  1  0  0  0  0
 23 34  1  0  0  0  0
 23 20  1  0  0  0  0
 24 23  2  0  0  0  0
 25 22  2  0  0  0  0
 26 22  1  0  0  0  0
 27 25  1  0  0  0  0
 28 27  2  0  0  0  0
 28 26  1  0  0  0  0
 32  5  1  0  0  0  0
 35 24  1  0  0  0  0
 36 27  1  0  0  0  0
 37 28  1  0  0  0  0
M  END
$$$$
scan_sander_basal/min_pdbs/min_pdb_C271_165.pdb
 OpenBabel09051719253D

 37 42  0  0  1  0  0  0  0  0999 V2000
    0.6940   -0.2980    0.7270 C   0  0  0  0  0  0  0  0  0  0  0  0
   -0.2090    0.7520    0.9340 C   0  0  0  0  0  0  0  0  0  0  0  0
    1.9750   -0.0850    0.3860 N   0  0  0  0  0  0  0  0  0  0  0  0
    0.2330    2.0760    0.7770 C   0  0  0  0  0  0  0  0  0  0  0  0
    2.3970    1.1880    0.2390 C   0  0  0  0  0  0  0  0  0  0  0  0
    1.5820    2.3430    0.4110 C   0  0  0  0  0  0  0  0  0  0  0  0
    2.1550    3.7360    0.2210 C   0  0  0  0  0  0  0  0  0  0  0  0
    3.5600    3.9280    0.1710 C   0  0  0  0  0  0  0  0  0  0  0  0
    1.4040    4.9370    0.0660 C   0  0  0  0  0  0  0  0  0  0  0  0
    4.1670    5.1180    0.0160 N   0  0  0  0  0  0  0  0  0  0  0  0
    0.0570    5.0010    0.0240 N   0  0  0  0  0  0  0  0  0  0  0  0
    2.0320    6.1710   -0.1030 C   0  0  0  0  0  0  0  0  0  0  0  0
    3.4480    6.2500   -0.1220 C   0  0  0  0  0  0  0  0  0  0  0  0
   -0.3210    6.5740   -0.1890 S   0  0  0  0  0  0  0  0  0  0  0  0
    1.1800    7.2130   -0.2520 N   0  0  0  0  0  0  0  0  0  0  0  0
    4.1920    7.5270   -0.2880 C   0  0  1  0  0  0  0  0  0  0  0  0
    3.4780    9.1470   -0.4650 B   0  0  0  0  0  0  0  0  0  0  0  0
    5.5720    7.6500   -0.3280 C   0  0  0  0  0  0  0  0  0  0  0  0
    5.0580    9.9220   -0.5880 C   0  0  0  0  0  0  0  0  0  0  0  0
    6.8200    6.4290   -0.2080 S   0  0  0  0  0  0  0  0  0  0  0  0
    6.0310    8.9570   -0.4910 C   0  0  0  0  0  0  0  0  0  0  0  0
    5.2570   11.3400   -0.7530 C   0  0  0  0  0  0  0  0  0  0  0  0
    8.0200    7.7360   -0.3850 C   0  0  0  0  0  0  0  0  0  0  0  0
    7.4580    8.9960   -0.5220 C   0  0  0  0  0  0  0  0  0  0  0  0
    6.4800   11.8320   -0.8200 C   0  0  0  0  0  0  0  0  0  0  0  0
    3.9420   12.4880   -0.8700 S   0  0  0  0  0  0  0  0  0  0  0  0
    6.4350   13.2000   -0.9750 C   0  0  0  0  0  0  0  0  0  0  0  0
    5.1650   13.7250   -1.0230 C   0  0  0  0  0  0  0  0  0  0  0  0
    0.3860   -1.3370    0.8420 H   0  0  0  0  0  0  0  0  0  0  0  0
   -1.2360    0.5430    1.2200 H   0  0  0  0  0  0  0  0  0  0  0  0
   -0.4740    2.8690    0.9780 H   0  0  0  0  0  0  0  0  0  0  0  0
    3.4370    1.2730   -0.0630 H   0  0  0  0  0  0  0  0  0  0  0  0
    4.2480    3.0970    0.2970 H   0  0  0  0  0  0  0  0  0  0  0  0
    9.0710    7.4790   -0.3740 H   0  0  0  0  0  0  0  0  0  0  0  0
    8.0450    9.8990   -0.6410 H   0  0  0  0  0  0  0  0  0  0  0  0
    7.3650   13.7510   -1.0470 H   0  0  0  0  0  0  0  0  0  0  0  0
    4.8710   14.7600   -1.1380 H   0  0  0  0  0  0  0  0  0  0  0  0
  1 29  1  0  0  0  0
  1  2  2  0  0  0  0
  2 30  1  0  0  0  0
  3  1  1  0  0  0  0
  4  2  1  0  0  0  0
  4 31  1  0  0  0  0
  5  3  2  0  0  0  0
  5  6  1  0  0  0  0
  6  4  2  0  0  0  0
  7  6  1  0  0  0  0
  8  7  2  0  0  0  0
  8 33  1  0  0  0  0
  9  7  1  0  0  0  0
 10  8  1  0  0  0  0
 11  9  2  0  0  0  0
 12  9  1  0  0  0  0
 13 12  1  0  0  0  0
 13 10  2  0  0  0  0
 14 11  1  0  0  0  0
 15 14  1  0  0  0  0
 15 12  2  0  0  0  0
 16 13  1  1  0  0  0
 17 16  1  0  0  0  0
 18 16  1  0  0  0  0
 18 20  1  0  0  0  0
 19 21  1  0  0  0  0
 19 17  2  0  0  0  0
 21 18  2  0  0  0  0
 22 19  1  0  0  0  0
 23 34  1  0  0  0  0
 23 20  1  0  0  0  0
 24 21  1  0  0  0  0
 24 23  2  0  0  0  0
 25 22  2  0  0  0  0
 26 22  1  0  0  0  0
 27 25  1  0  0  0  0
 28 27  2  0  0  0  0
 28 26  1  0  0  0  0
 32  5  1  0  0  0  0
 35 24  1  0  0  0  0
 36 27  1  0  0  0  0
 37 28  1  0  0  0  0
M  END
$$$$
scan_sander_basal/min_pdbs/min_pdb_C271_180.pdb
 OpenBabel09051719253D

 37 42  0  0  1  0  0  0  0  0999 V2000
    0.7130   -0.3170    0.7740 C   0  0  0  0  0  0  0  0  0  0  0  0
   -0.2390    0.7050    0.6940 C   0  0  0  0  0  0  0  0  0  0  0  0
    2.0300   -0.0720    0.6920 N   0  0  0  0  0  0  0  0  0  0  0  0
    0.1910    2.0310    0.5230 C   0  0  0  0  0  0  0  0  0  0  0  0
    2.4390    1.2020    0.5280 C   0  0  0  0  0  0  0  0  0  0  0  0
    1.5800    2.3380    0.4310 C   0  0  0  0  0  0  0  0  0  0  0  0
    2.1490    3.7410    0.2450 C   0  0  0  0  0  0  0  0  0  0  0  0
    3.5540    3.9370    0.1660 C   0  0  0  0  0  0  0  0  0  0  0  0
    1.4010    4.9520    0.1350 C   0  0  0  0  0  0  0  0  0  0  0  0
    4.1600    5.1260    0.0030 N   0  0  0  0  0  0  0  0  0  0  0  0
    0.0560    5.0380    0.1790 N   0  0  0  0  0  0  0  0  0  0  0  0
    2.0310    6.1870   -0.0330 C   0  0  0  0  0  0  0  0  0  0  0  0
    3.4450    6.2620   -0.0990 C   0  0  0  0  0  0  0  0  0  0  0  0
   -0.3180    6.6170    0.0100 S   0  0  0  0  0  0  0  0  0  0  0  0
    1.1840    7.2400   -0.1220 N   0  0  0  0  0  0  0  0  0  0  0  0
    4.1900    7.5360   -0.2760 C   0  0  1  0  0  0  0  0  0  0  0  0
    3.4800    9.1620   -0.4130 B   0  0  0  0  0  0  0  0  0  0  0  0
    5.5690    7.6520   -0.3600 C   0  0  0  0  0  0  0  0  0  0  0  0
    5.0600    9.9300   -0.5810 C   0  0  0  0  0  0  0  0  0  0  0  0
    6.8130    6.4240   -0.2950 S   0  0  0  0  0  0  0  0  0  0  0  0
    6.0300    8.9580   -0.5250 C   0  0  0  0  0  0  0  0  0  0  0  0
    5.2610   11.3490   -0.7380 C   0  0  0  0  0  0  0  0  0  0  0  0
    8.0140    7.7260   -0.4970 C   0  0  0  0  0  0  0  0  0  0  0  0
    7.4550    8.9910   -0.6040 C   0  0  0  0  0  0  0  0  0  0  0  0
    6.4840   11.8350   -0.8400 C   0  0  0  0  0  0  0  0  0  0  0  0
    3.9500   12.5050   -0.8000 S   0  0  0  0  0  0  0  0  0  0  0  0
    6.4430   13.2040   -0.9800 C   0  0  0  0  0  0  0  0  0  0  0  0
    5.1750   13.7370   -0.9810 C   0  0  0  0  0  0  0  0  0  0  0  0
    0.4160   -1.3570    0.9060 H   0  0  0  0  0  0  0  0  0  0  0  0
   -1.2980    0.4730    0.7640 H   0  0  0  0  0  0  0  0  0  0  0  0
   -0.5760    2.7880    0.4660 H   0  0  0  0  0  0  0  0  0  0  0  0
    3.5180    1.2980    0.4730 H   0  0  0  0  0  0  0  0  0  0  0  0
    4.2520    3.1090    0.2330 H   0  0  0  0  0  0  0  0  0  0  0  0
    9.0640    7.4630   -0.5240 H   0  0  0  0  0  0  0  0  0  0  0  0
    8.0430    9.8910   -0.7320 H   0  0  0  0  0  0  0  0  0  0  0  0
    7.3730   13.7510   -1.0770 H   0  0  0  0  0  0  0  0  0  0  0  0
    4.8840   14.7740   -1.0760 H   0  0  0  0  0  0  0  0  0  0  0  0
  1 29  1  0  0  0  0
  2 30  1  0  0  0  0
  2  1  2  0  0  0  0
  3  1  1  0  0  0  0
  4  2  1  0  0  0  0
  5  3  2  0  0  0  0
  6  4  2  0  0  0  0
  6  5  1  0  0  0  0
  7  6  1  0  0  0  0
  8 33  1  0  0  0  0
  8  7  2  0  0  0  0
  9 11  2  0  0  0  0
  9  7  1  0  0  0  0
 10  8  1  0  0  0  0
 12  9  1  0  0  0  0
 13 12  1  0  0  0  0
 13 10  2  0  0  0  0
 14 11  1  0  0  0  0
 15 12  2  0  0  0  0
 15 14  1  0  0  0  0
 16 13  1  1  0  0  0
 17 16  1  0  0  0  0
 18 20  1  0  0  0  0
 18 16  1  0  0  0  0
 19 21  1  0  0  0  0
 19 17  2  0  0  0  0
 21 18  2  0  0  0  0
 22 19  1  0  0  0  0
 23 20  1  0  0  0  0
 24 21  1  0  0  0  0
 24 23  2  0  0  0  0
 25 22  2  0  0  0  0
 26 22  1  0  0  0  0
 27 25  1  0  0  0  0
 28 27  2  0  0  0  0
 28 26  1  0  0  0  0
 31  4  1  0  0  0  0
 32  5  1  0  0  0  0
 34 23  1  0  0  0  0
 35 24  1  0  0  0  0
 36 27  1  0  0  0  0
 37 28  1  0  0  0  0
M  END
$$$$
scan_sander_basal/min_pdbs/min_pdb_C271_195.pdb
 OpenBabel09051719253D

 37 42  0  0  1  0  0  0  0  0999 V2000
    0.6990   -0.2880    0.8170 C   0  0  0  0  0  0  0  0  0  0  0  0
   -0.2280    0.6950    0.4510 C   0  0  0  0  0  0  0  0  0  0  0  0
    2.0020   -0.0150    0.9960 N   0  0  0  0  0  0  0  0  0  0  0  0
    0.2130    2.0160    0.2670 C   0  0  0  0  0  0  0  0  0  0  0  0
    2.4220    1.2540    0.8150 C   0  0  0  0  0  0  0  0  0  0  0  0
    1.5840    2.3470    0.4510 C   0  0  0  0  0  0  0  0  0  0  0  0
    2.1570    3.7420    0.2720 C   0  0  0  0  0  0  0  0  0  0  0  0
    3.5600    3.9270    0.1620 C   0  0  0  0  0  0  0  0  0  0  0  0
    1.4100    4.9530    0.2100 C   0  0  0  0  0  0  0  0  0  0  0  0
    4.1660    5.1160   -0.0080 N   0  0  0  0  0  0  0  0  0  0  0  0
    0.0700    5.0370    0.3460 N   0  0  0  0  0  0  0  0  0  0  0  0
    2.0380    6.1870    0.0410 C   0  0  0  0  0  0  0  0  0  0  0  0
    3.4500    6.2560   -0.0730 C   0  0  0  0  0  0  0  0  0  0  0  0
   -0.3040    6.6200    0.2230 S   0  0  0  0  0  0  0  0  0  0  0  0
    1.1910    7.2430    0.0170 N   0  0  0  0  0  0  0  0  0  0  0  0
    4.1920    7.5300   -0.2630 C   0  0  1  0  0  0  0  0  0  0  0  0
    3.4830    9.1590   -0.3570 B   0  0  0  0  0  0  0  0  0  0  0  0
    5.5680    7.6430   -0.3940 C   0  0  0  0  0  0  0  0  0  0  0  0
    5.0580    9.9240   -0.5730 C   0  0  0  0  0  0  0  0  0  0  0  0
    6.8100    6.4100   -0.3860 S   0  0  0  0  0  0  0  0  0  0  0  0
    6.0270    8.9490   -0.5620 C   0  0  0  0  0  0  0  0  0  0  0  0
    5.2580   11.3440   -0.7220 C   0  0  0  0  0  0  0  0  0  0  0  0
    8.0070    7.7110   -0.6170 C   0  0  0  0  0  0  0  0  0  0  0  0
    7.4480    8.9790   -0.6900 C   0  0  0  0  0  0  0  0  0  0  0  0
    6.4780   11.8270   -0.8630 C   0  0  0  0  0  0  0  0  0  0  0  0
    3.9490   12.5040   -0.7260 S   0  0  0  0  0  0  0  0  0  0  0  0
    6.4360   13.1980   -0.9880 C   0  0  0  0  0  0  0  0  0  0  0  0
    5.1700   13.7350   -0.9380 C   0  0  0  0  0  0  0  0  0  0  0  0
    0.3930   -1.3230    0.9680 H   0  0  0  0  0  0  0  0  0  0  0  0
   -1.2720    0.4360    0.3050 H   0  0  0  0  0  0  0  0  0  0  0  0
   -0.5160    2.7490   -0.0510 H   0  0  0  0  0  0  0  0  0  0  0  0
    3.4820    1.3960    1.0030 H   0  0  0  0  0  0  0  0  0  0  0  0
    4.2440    3.0820    0.1720 H   0  0  0  0  0  0  0  0  0  0  0  0
    9.0540    7.4460   -0.6840 H   0  0  0  0  0  0  0  0  0  0  0  0
    8.0340    9.8790   -0.8300 H   0  0  0  0  0  0  0  0  0  0  0  0
    7.3640   13.7440   -1.1120 H   0  0  0  0  0  0  0  0  0  0  0  0
    4.8790   14.7730   -1.0120 H   0  0  0  0  0  0  0  0  0  0  0  0
  1 29  1  0  0  0  0
  1  3  1  0  0  0  0
  2  1  2  0  0  0  0
  4  6  2  0  0  0  0
  4  2  1  0  0  0  0
  5  3  2  0  0  0  0
  5 32  1  0  0  0  0
  6  5  1  0  0  0  0
  7  6  1  0  0  0  0
  8 33  1  0  0  0  0
  8  7  2  0  0  0  0
  9  7  1  0  0  0  0
  9 11  2  0  0  0  0
 10  8  1  0  0  0  0
 12  9  1  0  0  0  0
 13 10  2  0  0  0  0
 13 12  1  0  0  0  0
 14 11  1  0  0  0  0
 15 12  2  0  0  0  0
 15 14  1  0  0  0  0
 16 13  1  1  0  0  0
 17 16  1  0  0  0  0
 18 20  1  0  0  0  0
 18 16  1  0  0  0  0
 19 21  1  0  0  0  0
 19 17  2  0  0  0  0
 21 18  2  0  0  0  0
 22 19  1  0  0  0  0
 23 20  1  0  0  0  0
 24 23  2  0  0  0  0
 24 21  1  0  0  0  0
 25 22  2  0  0  0  0
 26 22  1  0  0  0  0
 27 28  2  0  0  0  0
 27 25  1  0  0  0  0
 28 26  1  0  0  0  0
 30  2  1  0  0  0  0
 31  4  1  0  0  0  0
 34 23  1  0  0  0  0
 35 24  1  0  0  0  0
 36 27  1  0  0  0  0
 37 28  1  0  0  0  0
M  END
$$$$
scan_sander_basal/min_pdbs/min_pdb_C271_210.pdb
 OpenBabel09051719253D

 37 42  0  0  1  0  0  0  0  0999 V2000
    0.6670   -0.2400    0.8640 C   0  0  0  0  0  0  0  0  0  0  0  0
   -0.1680    0.6900    0.2280 C   0  0  0  0  0  0  0  0  0  0  0  0
    1.9060    0.0710    1.2870 N   0  0  0  0  0  0  0  0  0  0  0  0
    0.2980    2.0000    0.0290 C   0  0  0  0  0  0  0  0  0  0  0  0
    2.3510    1.3290    1.0920 C   0  0  0  0  0  0  0  0  0  0  0  0
    1.5960    2.3600    0.4710 C   0  0  0  0  0  0  0  0  0  0  0  0
    2.1780    3.7370    0.2860 C   0  0  0  0  0  0  0  0  0  0  0  0
    3.5750    3.9070    0.1390 C   0  0  0  0  0  0  0  0  0  0  0  0
    1.4270    4.9400    0.2670 C   0  0  0  0  0  0  0  0  0  0  0  0
    4.1780    5.0970   -0.0320 N   0  0  0  0  0  0  0  0  0  0  0  0
    0.0920    5.0050    0.4450 N   0  0  0  0  0  0  0  0  0  0  0  0
    2.0500    6.1740    0.0980 C   0  0  0  0  0  0  0  0  0  0  0  0
    3.4600    6.2400   -0.0600 C   0  0  0  0  0  0  0  0  0  0  0  0
   -0.2880    6.5900    0.3600 S   0  0  0  0  0  0  0  0  0  0  0  0
    1.1980    7.2260    0.1160 N   0  0  0  0  0  0  0  0  0  0  0  0
    4.1960    7.5160   -0.2550 C   0  0  1  0  0  0  0  0  0  0  0  0
    3.4830    9.1460   -0.3050 B   0  0  0  0  0  0  0  0  0  0  0  0
    5.5670    7.6320   -0.4280 C   0  0  0  0  0  0  0  0  0  0  0  0
    5.0510    9.9150   -0.5600 C   0  0  0  0  0  0  0  0  0  0  0  0
    6.8090    6.4010   -0.4750 S   0  0  0  0  0  0  0  0  0  0  0  0
    6.0190    8.9410   -0.5920 C   0  0  0  0  0  0  0  0  0  0  0  0
    5.2450   11.3370   -0.6970 C   0  0  0  0  0  0  0  0  0  0  0  0
    7.9980    7.7050   -0.7260 C   0  0  0  0  0  0  0  0  0  0  0  0
    7.4360    8.9730   -0.7650 C   0  0  0  0  0  0  0  0  0  0  0  0
    6.4600   11.8230   -0.8700 C   0  0  0  0  0  0  0  0  0  0  0  0
    3.9360   12.4960   -0.6450 S   0  0  0  0  0  0  0  0  0  0  0  0
    6.4140   13.1950   -0.9750 C   0  0  0  0  0  0  0  0  0  0  0  0
    5.1490   13.7300   -0.8780 C   0  0  0  0  0  0  0  0  0  0  0  0
    0.3390   -1.2650    1.0340 H   0  0  0  0  0  0  0  0  0  0  0  0
   -1.1580    0.3980   -0.1080 H   0  0  0  0  0  0  0  0  0  0  0  0
   -0.3350    2.7130   -0.4890 H   0  0  0  0  0  0  0  0  0  0  0  0
    3.3530    1.5270    1.4690 H   0  0  0  0  0  0  0  0  0  0  0  0
    4.2420    3.0460    0.1320 H   0  0  0  0  0  0  0  0  0  0  0  0
    9.0420    7.4420   -0.8290 H   0  0  0  0  0  0  0  0  0  0  0  0
    8.0170    9.8750   -0.9110 H   0  0  0  0  0  0  0  0  0  0  0  0
    7.3370   13.7430   -1.1210 H   0  0  0  0  0  0  0  0  0  0  0  0
    4.8560   14.7700   -0.9300 H   0  0  0  0  0  0  0  0  0  0  0  0
  1 29  1  0  0  0  0
  1  3  2  0  0  0  0
  2  1  1  0  0  0  0
  4  2  2  0  0  0  0
  4  6  1  0  0  0  0
  5  3  1  0  0  0  0
  5 32  1  0  0  0  0
  6  5  2  0  0  0  0
  7  6  1  0  0  0  0
  8  7  2  0  0  0  0
  9  7  1  0  0  0  0
  9 11  2  0  0  0  0
 10  8  1  0  0  0  0
 12 15  2  0  0  0  0
 12  9  1  0  0  0  0
 13 10  2  0  0  0  0
 13 12  1  0  0  0  0
 14 11  1  0  0  0  0
 15 14  1  0  0  0  0
 16 13  1  1  0  0  0
 17 16  1  0  0  0  0
 18 16  1  0  0  0  0
 19 17  2  0  0  0  0
 20 18  1  0  0  0  0
 21 19  1  0  0  0  0
 21 18  2  0  0  0  0
 22 26  1  0  0  0  0
 22 19  1  0  0  0  0
 23 20  1  0  0  0  0
 24 23  2  0  0  0  0
 24 21  1  0  0  0  0
 25 22  2  0  0  0  0
 27 28  2  0  0  0  0
 27 25  1  0  0  0  0
 28 26  1  0  0  0  0
 30  2  1  0  0  0  0
 31  4  1  0  0  0  0
 33  8  1  0  0  0  0
 34 23  1  0  0  0  0
 35 24  1  0  0  0  0
 36 27  1  0  0  0  0
 37 28  1  0  0  0  0
M  END
$$$$
scan_sander_basal/min_pdbs/min_pdb_C271_225.pdb
 OpenBabel09051719253D

 37 42  0  0  1  0  0  0  0  0999 V2000
    0.6170   -0.1920    0.9120 C   0  0  0  0  0  0  0  0  0  0  0  0
   -0.0700    0.6640    0.0370 C   0  0  0  0  0  0  0  0  0  0  0  0
    1.7410    0.1750    1.5560 N   0  0  0  0  0  0  0  0  0  0  0  0
    0.4300    1.9590   -0.1770 C   0  0  0  0  0  0  0  0  0  0  0  0
    2.2170    1.4200    1.3490 C   0  0  0  0  0  0  0  0  0  0  0  0
    1.6060    2.3700    0.4930 C   0  0  0  0  0  0  0  0  0  0  0  0
    2.2010    3.7300    0.3000 C   0  0  0  0  0  0  0  0  0  0  0  0
    3.5900    3.8890    0.1080 C   0  0  0  0  0  0  0  0  0  0  0  0
    1.4490    4.9260    0.3160 C   0  0  0  0  0  0  0  0  0  0  0  0
    4.1900    5.0820   -0.0660 N   0  0  0  0  0  0  0  0  0  0  0  0
    0.1160    4.9730    0.5140 N   0  0  0  0  0  0  0  0  0  0  0  0
    2.0640    6.1610    0.1420 C   0  0  0  0  0  0  0  0  0  0  0  0
    3.4700    6.2270   -0.0560 C   0  0  0  0  0  0  0  0  0  0  0  0
   -0.2710    6.5580    0.4560 S   0  0  0  0  0  0  0  0  0  0  0  0
    1.2070    7.2080    0.1890 N   0  0  0  0  0  0  0  0  0  0  0  0
    4.2000    7.5050   -0.2550 C   0  0  1  0  0  0  0  0  0  0  0  0
    3.4850    9.1340   -0.2600 B   0  0  0  0  0  0  0  0  0  0  0  0
    5.5660    7.6240   -0.4660 C   0  0  0  0  0  0  0  0  0  0  0  0
    5.0450    9.9090   -0.5480 C   0  0  0  0  0  0  0  0  0  0  0  0
    6.8060    6.3950   -0.5660 S   0  0  0  0  0  0  0  0  0  0  0  0
    6.0130    8.9360   -0.6240 C   0  0  0  0  0  0  0  0  0  0  0  0
    5.2350   11.3330   -0.6690 C   0  0  0  0  0  0  0  0  0  0  0  0
    7.9870    7.7040   -0.8330 C   0  0  0  0  0  0  0  0  0  0  0  0
    7.4240    8.9720   -0.8370 C   0  0  0  0  0  0  0  0  0  0  0  0
    6.4440   11.8220   -0.8700 C   0  0  0  0  0  0  0  0  0  0  0  0
    3.9280   12.4900   -0.5620 S   0  0  0  0  0  0  0  0  0  0  0  0
    6.3940   13.1960   -0.9520 C   0  0  0  0  0  0  0  0  0  0  0  0
    5.1340   13.7280   -0.8110 C   0  0  0  0  0  0  0  0  0  0  0  0
    0.2590   -1.2040    1.1010 H   0  0  0  0  0  0  0  0  0  0  0  0
   -0.9710    0.3280   -0.4660 H   0  0  0  0  0  0  0  0  0  0  0  0
   -0.0820    2.6360   -0.8560 H   0  0  0  0  0  0  0  0  0  0  0  0
    3.1250    1.6760    1.8940 H   0  0  0  0  0  0  0  0  0  0  0  0
    4.2470    3.0190    0.0810 H   0  0  0  0  0  0  0  0  0  0  0  0
    9.0280    7.4420   -0.9700 H   0  0  0  0  0  0  0  0  0  0  0  0
    8.0000    9.8760   -0.9860 H   0  0  0  0  0  0  0  0  0  0  0  0
    7.3130   13.7470   -1.1160 H   0  0  0  0  0  0  0  0  0  0  0  0
    4.8380   14.7680   -0.8380 H   0  0  0  0  0  0  0  0  0  0  0  0
  1 29  1  0  0  0  0
  1  3  2  0  0  0  0
  2  1  1  0  0  0  0
  4  2  2  0  0  0  0
  4  6  1  0  0  0  0
  5  3  1  0  0  0  0
  5 32  1  0  0  0  0
  6  5  2  0  0  0  0
  7  9  1  0  0  0  0
  7  6  1  0  0  0  0
  8  7  2  0  0  0  0
  9 11  2  0  0  0  0
 10 13  2  0  0  0  0
 10  8  1  0  0  0  0
 12 15  2  0  0  0  0
 12  9  1  0  0  0  0
 13 12  1  0  0  0  0
 14 11  1  0  0  0  0
 15 14  1  0  0  0  0
 16 13  1  1  0  0  0
 17 16  1  0  0  0  0
 18 16  1  0  0  0  0
 19 17  2  0  0  0  0
 20 18  1  0  0  0  0
 21 19  1  0  0  0  0
 21 18  2  0  0  0  0
 22 26  1  0  0  0  0
 22 19  1  0  0  0  0
 23 20  1  0  0  0  0
 24 23  2  0  0  0  0
 24 21  1  0  0  0  0
 25 22  2  0  0  0  0
 27 25  1  0  0  0  0
 27 28  2  0  0  0  0
 28 26  1  0  0  0  0
 30  2  1  0  0  0  0
 31  4  1  0  0  0  0
 33  8  1  0  0  0  0
 34 23  1  0  0  0  0
 35 24  1  0  0  0  0
 36 27  1  0  0  0  0
 37 28  1  0  0  0  0
M  END
$$$$
scan_sander_basal/min_pdbs/min_pdb_C271_240.pdb
 OpenBabel09051719253D

 37 42  0  0  1  0  0  0  0  0999 V2000
    0.1690    0.0580    1.0170 C   0  0  0  0  0  0  0  0  0  0  0  0
    0.5980    0.3170   -0.2950 C   0  0  0  0  0  0  0  0  0  0  0  0
    0.3400    0.9340    2.0260 N   0  0  0  0  0  0  0  0  0  0  0  0
    1.2320    1.5390   -0.5730 C   0  0  0  0  0  0  0  0  0  0  0  0
    0.9480    2.1070    1.7560 C   0  0  0  0  0  0  0  0  0  0  0  0
    1.4200    2.4720    0.4720 C   0  0  0  0  0  0  0  0  0  0  0  0
    2.0960    3.7800    0.2380 C   0  0  0  0  0  0  0  0  0  0  0  0
    3.2750    4.1260    0.9290 C   0  0  0  0  0  0  0  0  0  0  0  0
    1.6070    4.7480   -0.6640 C   0  0  0  0  0  0  0  0  0  0  0  0
    3.9220    5.2950    0.7600 N   0  0  0  0  0  0  0  0  0  0  0  0
    0.4910    4.5850   -1.3990 N   0  0  0  0  0  0  0  0  0  0  0  0
    2.2690    5.9580   -0.8420 C   0  0  0  0  0  0  0  0  0  0  0  0
    3.4560    6.2250   -0.1060 C   0  0  0  0  0  0  0  0  0  0  0  0
    0.3500    5.9630   -2.2650 S   0  0  0  0  0  0  0  0  0  0  0  0
    1.6710    6.7760   -1.7400 N   0  0  0  0  0  0  0  0  0  0  0  0
    4.2210    7.4920   -0.2410 C   0  0  1  0  0  0  0  0  0  0  0  0
    3.8020    8.8660   -1.2890 B   0  0  0  0  0  0  0  0  0  0  0  0
    5.3890    7.7980    0.4400 C   0  0  0  0  0  0  0  0  0  0  0  0
    5.2120    9.7960   -0.7760 C   0  0  0  0  0  0  0  0  0  0  0  0
    6.2990    6.8620    1.6050 S   0  0  0  0  0  0  0  0  0  0  0  0
    5.9180    9.0540    0.1410 C   0  0  0  0  0  0  0  0  0  0  0  0
    5.5320   11.1170   -1.2540 C   0  0  0  0  0  0  0  0  0  0  0  0
    7.4480    8.2230    1.6980 C   0  0  0  0  0  0  0  0  0  0  0  0
    7.1170    9.2910    0.8790 C   0  0  0  0  0  0  0  0  0  0  0  0
    6.6020   11.7420   -0.8000 C   0  0  0  0  0  0  0  0  0  0  0  0
    4.5620   11.9750   -2.4300 S   0  0  0  0  0  0  0  0  0  0  0  0
    6.7140   12.9830   -1.3860 C   0  0  0  0  0  0  0  0  0  0  0  0
    5.7140   13.2800   -2.2840 C   0  0  0  0  0  0  0  0  0  0  0  0
   -0.3270   -0.8800    1.2690 H   0  0  0  0  0  0  0  0  0  0  0  0
    0.4390   -0.4160   -1.0800 H   0  0  0  0  0  0  0  0  0  0  0  0
    1.5720    1.7680   -1.5790 H   0  0  0  0  0  0  0  0  0  0  0  0
    1.0650    2.7890    2.5970 H   0  0  0  0  0  0  0  0  0  0  0  0
    3.7180    3.4330    1.6450 H   0  0  0  0  0  0  0  0  0  0  0  0
    8.2990    8.1370    2.3610 H   0  0  0  0  0  0  0  0  0  0  0  0
    7.7090   10.1960    0.8150 H   0  0  0  0  0  0  0  0  0  0  0  0
    7.5470   13.6200   -1.1140 H   0  0  0  0  0  0  0  0  0  0  0  0
    5.5820   14.1810   -2.8660 H   0  0  0  0  0  0  0  0  0  0  0  0
  1 29  1  0  0  0  0
  1  3  2  0  0  0  0
  2  1  1  0  0  0  0
  4  2  2  0  0  0  0
  4  6  1  0  0  0  0
  5  3  1  0  0  0  0
  5 32  1  0  0  0  0
  6  5  2  0  0  0  0
  7  6  1  0  0  0  0
  7  8  2  0  0  0  0
  8 33  1  0  0  0  0
  9  7  1  0  0  0  0
 10  8  1  0  0  0  0
 11  9  2  0  0  0  0
 12  9  1  0  0  0  0
 12 13  1  0  0  0  0
 13 10  2  0  0  0  0
 14 15  1  0  0  0  0
 14 11  1  0  0  0  0
 15 12  2  0  0  0  0
 16 13  1  1  0  0  0
 16 18  1  0  0  0  0
 17 19  2  0  0  0  0
 17 16  1  0  0  0  0
 18 20  1  0  0  0  0
 19 21  1  0  0  0  0
 20 23  1  0  0  0  0
 21 18  2  0  0  0  0
 21 24  1  0  0  0  0
 22 25  2  0  0  0  0
 22 19  1  0  0  0  0
 23 34  1  0  0  0  0
 24 23  2  0  0  0  0
 26 28  1  0  0  0  0
 26 22  1  0  0  0  0
 27 36  1  0  0  0  0
 27 25  1  0  0  0  0
 28 27  2  0  0  0  0
 30  2  1  0  0  0  0
 31  4  1  0  0  0  0
 35 24  1  0  0  0  0
 37 28  1  0  0  0  0
M  END
$$$$
scan_sander_basal/min_pdbs/min_pdb_C271_255.pdb
 OpenBabel09051719253D

 37 42  0  0  1  0  0  0  0  0999 V2000
    0.1270    0.0780    0.9890 C   0  0  0  0  0  0  0  0  0  0  0  0
    0.8050    0.2350   -0.2310 C   0  0  0  0  0  0  0  0  0  0  0  0
    0.0730    1.0480    1.9230 N   0  0  0  0  0  0  0  0  0  0  0  0
    1.4550    1.4520   -0.4950 C   0  0  0  0  0  0  0  0  0  0  0  0
    0.6970    2.2160    1.6670 C   0  0  0  0  0  0  0  0  0  0  0  0
    1.4100    2.4800    0.4730 C   0  0  0  0  0  0  0  0  0  0  0  0
    2.0870    3.7860    0.2470 C   0  0  0  0  0  0  0  0  0  0  0  0
    3.2910    4.1110    0.9040 C   0  0  0  0  0  0  0  0  0  0  0  0
    1.5750    4.7710   -0.6210 C   0  0  0  0  0  0  0  0  0  0  0  0
    3.9380    5.2810    0.7330 N   0  0  0  0  0  0  0  0  0  0  0  0
    0.4350    4.6200   -1.3230 N   0  0  0  0  0  0  0  0  0  0  0  0
    2.2370    5.9790   -0.8010 C   0  0  0  0  0  0  0  0  0  0  0  0
    3.4480    6.2280   -0.1010 C   0  0  0  0  0  0  0  0  0  0  0  0
    0.2730    6.0130   -2.1630 S   0  0  0  0  0  0  0  0  0  0  0  0
    1.6130    6.8130   -1.6670 N   0  0  0  0  0  0  0  0  0  0  0  0
    4.2150    7.4930   -0.2390 C   0  0  1  0  0  0  0  0  0  0  0  0
    3.7680    8.8870   -1.2490 B   0  0  0  0  0  0  0  0  0  0  0  0
    5.4070    7.7830    0.4070 C   0  0  0  0  0  0  0  0  0  0  0  0
    5.1990    9.8010   -0.7680 C   0  0  0  0  0  0  0  0  0  0  0  0
    6.3500    6.8220    1.5250 S   0  0  0  0  0  0  0  0  0  0  0  0
    5.9320    9.0400    0.1120 C   0  0  0  0  0  0  0  0  0  0  0  0
    5.5100   11.1290   -1.2340 C   0  0  0  0  0  0  0  0  0  0  0  0
    7.5090    8.1760    1.6030 C   0  0  0  0  0  0  0  0  0  0  0  0
    7.1560    9.2600    0.8130 C   0  0  0  0  0  0  0  0  0  0  0  0
    6.5980   11.7410   -0.8060 C   0  0  0  0  0  0  0  0  0  0  0  0
    4.5060   12.0110   -2.3630 S   0  0  0  0  0  0  0  0  0  0  0  0
    6.6970   12.9910   -1.3740 C   0  0  0  0  0  0  0  0  0  0  0  0
    5.6690   13.3080   -2.2330 C   0  0  0  0  0  0  0  0  0  0  0  0
   -0.3880   -0.8520    1.2270 H   0  0  0  0  0  0  0  0  0  0  0  0
    0.8220   -0.5710   -0.9580 H   0  0  0  0  0  0  0  0  0  0  0  0
    1.9840    1.6050   -1.4320 H   0  0  0  0  0  0  0  0  0  0  0  0
    0.6300    2.9760    2.4440 H   0  0  0  0  0  0  0  0  0  0  0  0
    3.7530    3.4030    1.5920 H   0  0  0  0  0  0  0  0  0  0  0  0
    8.3810    8.0740    2.2350 H   0  0  0  0  0  0  0  0  0  0  0  0
    7.7500   10.1630    0.7450 H   0  0  0  0  0  0  0  0  0  0  0  0
    7.5420   13.6190   -1.1200 H   0  0  0  0  0  0  0  0  0  0  0  0
    5.5230   14.2190   -2.7960 H   0  0  0  0  0  0  0  0  0  0  0  0
  1 29  1  0  0  0  0
  1  3  2  0  0  0  0
  2  1  1  0  0  0  0
  4  2  2  0  0  0  0
  4  6  1  0  0  0  0
  5  3  1  0  0  0  0
  5 32  1  0  0  0  0
  6  5  2  0  0  0  0
  7  6  1  0  0  0  0
  7  8  2  0  0  0  0
  8 33  1  0  0  0  0
  9  7  1  0  0  0  0
 10  8  1  0  0  0  0
 11  9  2  0  0  0  0
 12  9  1  0  0  0  0
 12 13  1  0  0  0  0
 13 10  2  0  0  0  0
 14 15  1  0  0  0  0
 14 11  1  0  0  0  0
 15 12  2  0  0  0  0
 16 13  1  1  0  0  0
 16 18  1  0  0  0  0
 17 19  2  0  0  0  0
 17 16  1  0  0  0  0
 18 20  1  0  0  0  0
 19 21  1  0  0  0  0
 20 23  1  0  0  0  0
 21 18  2  0  0  0  0
 21 24  1  0  0  0  0
 22 25  2  0  0  0  0
 22 19  1  0  0  0  0
 23 34  1  0  0  0  0
 24 23  2  0  0  0  0
 26 28  1  0  0  0  0
 26 22  1  0  0  0  0
 27 36  1  0  0  0  0
 27 25  1  0  0  0  0
 28 27  2  0  0  0  0
 30  2  1  0  0  0  0
 31  4  1  0  0  0  0
 35 24  1  0  0  0  0
 37 28  1  0  0  0  0
M  END
$$$$
scan_sander_basal/min_pdbs/min_pdb_C271_270.pdb
 OpenBabel09051719253D

 37 42  0  0  1  0  0  0  0  0999 V2000
    0.0950    0.0910    0.9590 C   0  0  0  0  0  0  0  0  0  0  0  0
    0.9960    0.1620   -0.1170 C   0  0  0  0  0  0  0  0  0  0  0  0
   -0.1650    1.1400    1.7640 N   0  0  0  0  0  0  0  0  0  0  0  0
    1.6570    1.3750   -0.3690 C   0  0  0  0  0  0  0  0  0  0  0  0
    0.4700    2.3040    1.5190 C   0  0  0  0  0  0  0  0  0  0  0  0
    1.3980    2.4850    0.4660 C   0  0  0  0  0  0  0  0  0  0  0  0
    2.0760    3.7920    0.2460 C   0  0  0  0  0  0  0  0  0  0  0  0
    3.3040    4.0960    0.8670 C   0  0  0  0  0  0  0  0  0  0  0  0
    1.5410    4.7950   -0.5850 C   0  0  0  0  0  0  0  0  0  0  0  0
    3.9510    5.2660    0.6960 N   0  0  0  0  0  0  0  0  0  0  0  0
    0.3770    4.6640   -1.2500 N   0  0  0  0  0  0  0  0  0  0  0  0
    2.2030    6.0030   -0.7650 C   0  0  0  0  0  0  0  0  0  0  0  0
    3.4400    6.2320   -0.1020 C   0  0  0  0  0  0  0  0  0  0  0  0
    0.1950    6.0720   -2.0580 S   0  0  0  0  0  0  0  0  0  0  0  0
    1.5550    6.8570   -1.5930 N   0  0  0  0  0  0  0  0  0  0  0  0
    4.2090    7.4950   -0.2420 C   0  0  1  0  0  0  0  0  0  0  0  0
    3.7360    8.9110   -1.2090 B   0  0  0  0  0  0  0  0  0  0  0  0
    5.4240    7.7660    0.3680 C   0  0  0  0  0  0  0  0  0  0  0  0
    5.1880    9.8080   -0.7590 C   0  0  0  0  0  0  0  0  0  0  0  0
    6.3980    6.7790    1.4350 S   0  0  0  0  0  0  0  0  0  0  0  0
    5.9460    9.0260    0.0800 C   0  0  0  0  0  0  0  0  0  0  0  0
    5.4900   11.1430   -1.2100 C   0  0  0  0  0  0  0  0  0  0  0  0
    7.5670    8.1240    1.5000 C   0  0  0  0  0  0  0  0  0  0  0  0
    7.1940    9.2260    0.7430 C   0  0  0  0  0  0  0  0  0  0  0  0
    6.5960   11.7410   -0.8070 C   0  0  0  0  0  0  0  0  0  0  0  0
    4.4540   12.0520   -2.2860 S   0  0  0  0  0  0  0  0  0  0  0  0
    6.6820   13.0010   -1.3540 C   0  0  0  0  0  0  0  0  0  0  0  0
    5.6280   13.3400   -2.1710 C   0  0  0  0  0  0  0  0  0  0  0  0
   -0.4360   -0.8340    1.1830 H   0  0  0  0  0  0  0  0  0  0  0  0
    1.1740   -0.7070   -0.7420 H   0  0  0  0  0  0  0  0  0  0  0  0
    2.3580    1.4620   -1.1950 H   0  0  0  0  0  0  0  0  0  0  0  0
    0.2330    3.1300    2.1880 H   0  0  0  0  0  0  0  0  0  0  0  0
    3.7830    3.3730    1.5260 H   0  0  0  0  0  0  0  0  0  0  0  0
    8.4600    8.0060    2.0990 H   0  0  0  0  0  0  0  0  0  0  0  0
    7.7910   10.1270    0.6720 H   0  0  0  0  0  0  0  0  0  0  0  0
    7.5390   13.6200   -1.1170 H   0  0  0  0  0  0  0  0  0  0  0  0
    5.4680   14.2630   -2.7110 H   0  0  0  0  0  0  0  0  0  0  0  0
  1 29  1  0  0  0  0
  1  3  2  0  0  0  0
  2  1  1  0  0  0  0
  4  2  2  0  0  0  0
  4  6  1  0  0  0  0
  5  3  1  0  0  0  0
  5 32  1  0  0  0  0
  6  5  2  0  0  0  0
  7  6  1  0  0  0  0
  7  8  2  0  0  0  0
  8 33  1  0  0  0  0
  9  7  1  0  0  0  0
 10  8  1  0  0  0  0
 11  9  2  0  0  0  0
 12  9  1  0  0  0  0
 12 13  1  0  0  0  0
 13 10  2  0  0  0  0
 14 15  1  0  0  0  0
 14 11  1  0  0  0  0
 15 12  2  0  0  0  0
 16 13  1  1  0  0  0
 16 18  1  0  0  0  0
 17 19  2  0  0  0  0
 17 16  1  0  0  0  0
 18 20  1  0  0  0  0
 19 21  1  0  0  0  0
 20 23  1  0  0  0  0
 21 18  2  0  0  0  0
 21 24  1  0  0  0  0
 22 25  2  0  0  0  0
 22 19  1  0  0  0  0
 23 34  1  0  0  0  0
 24 23  2  0  0  0  0
 26 28  1  0  0  0  0
 26 22  1  0  0  0  0
 27 36  1  0  0  0  0
 27 25  1  0  0  0  0
 28 27  2  0  0  0  0
 30  2  1  0  0  0  0
 31  4  1  0  0  0  0
 35 24  1  0  0  0  0
 37 28  1  0  0  0  0
M  END
$$$$
scan_sander_basal/min_pdbs/min_pdb_C271_285.pdb
 OpenBabel09051719253D

 37 42  0  0  1  0  0  0  0  0999 V2000
    0.0700    0.0970    0.9270 C   0  0  0  0  0  0  0  0  0  0  0  0
    1.1620    0.1060    0.0430 C   0  0  0  0  0  0  0  0  0  0  0  0
   -0.3670    1.2040    1.5570 N   0  0  0  0  0  0  0  0  0  0  0  0
    1.8310    1.3170   -0.1980 C   0  0  0  0  0  0  0  0  0  0  0  0
    0.2760    2.3670    1.3230 C   0  0  0  0  0  0  0  0  0  0  0  0
    1.3870    2.4890    0.4550 C   0  0  0  0  0  0  0  0  0  0  0  0
    2.0640    3.7970    0.2390 C   0  0  0  0  0  0  0  0  0  0  0  0
    3.3140    4.0830    0.8240 C   0  0  0  0  0  0  0  0  0  0  0  0
    1.5060    4.8210   -0.5530 C   0  0  0  0  0  0  0  0  0  0  0  0
    3.9630    5.2520    0.6550 N   0  0  0  0  0  0  0  0  0  0  0  0
    0.3190    4.7100   -1.1790 N   0  0  0  0  0  0  0  0  0  0  0  0
    2.1700    6.0280   -0.7300 C   0  0  0  0  0  0  0  0  0  0  0  0
    3.4300    6.2360   -0.1060 C   0  0  0  0  0  0  0  0  0  0  0  0
    0.1190    6.1350   -1.9520 S   0  0  0  0  0  0  0  0  0  0  0  0
    1.4990    6.9020   -1.5180 N   0  0  0  0  0  0  0  0  0  0  0  0
    4.2020    7.4980   -0.2470 C   0  0  1  0  0  0  0  0  0  0  0  0
    3.7050    8.9360   -1.1690 B   0  0  0  0  0  0  0  0  0  0  0  0
    5.4390    7.7490    0.3260 C   0  0  0  0  0  0  0  0  0  0  0  0
    5.1780    9.8150   -0.7520 C   0  0  0  0  0  0  0  0  0  0  0  0
    6.4440    6.7350    1.3380 S   0  0  0  0  0  0  0  0  0  0  0  0
    5.9590    9.0120    0.0450 C   0  0  0  0  0  0  0  0  0  0  0  0
    5.4730   11.1570   -1.1860 C   0  0  0  0  0  0  0  0  0  0  0  0
    7.6220    8.0720    1.3890 C   0  0  0  0  0  0  0  0  0  0  0  0
    7.2310    9.1910    0.6690 C   0  0  0  0  0  0  0  0  0  0  0  0
    6.5960   11.7400   -0.8100 C   0  0  0  0  0  0  0  0  0  0  0  0
    4.4060   12.0940   -2.2070 S   0  0  0  0  0  0  0  0  0  0  0  0
    6.6720   13.0110   -1.3340 C   0  0  0  0  0  0  0  0  0  0  0  0
    5.5920   13.3720   -2.1070 C   0  0  0  0  0  0  0  0  0  0  0  0
   -0.4720   -0.8250    1.1370 H   0  0  0  0  0  0  0  0  0  0  0  0
    1.4810   -0.8100   -0.4460 H   0  0  0  0  0  0  0  0  0  0  0  0
    2.6770    1.3560   -0.8790 H   0  0  0  0  0  0  0  0  0  0  0  0
   -0.1080    3.2410    1.8470 H   0  0  0  0  0  0  0  0  0  0  0  0
    3.8110    3.3430    1.4520 H   0  0  0  0  0  0  0  0  0  0  0  0
    8.5340    7.9370    1.9560 H   0  0  0  0  0  0  0  0  0  0  0  0
    7.8300   10.0900    0.5950 H   0  0  0  0  0  0  0  0  0  0  0  0
    7.5400   13.6200   -1.1140 H   0  0  0  0  0  0  0  0  0  0  0  0
    5.4190   14.3070   -2.6220 H   0  0  0  0  0  0  0  0  0  0  0  0
  1 29  1  0  0  0  0
  1  3  2  0  0  0  0
  2  1  1  0  0  0  0
  4  2  2  0  0  0  0
  4  6  1  0  0  0  0
  5  3  1  0  0  0  0
  5 32  1  0  0  0  0
  6  5  2  0  0  0  0
  7  6  1  0  0  0  0
  7  8  2  0  0  0  0
  8 33  1  0  0  0  0
  9  7  1  0  0  0  0
 10  8  1  0  0  0  0
 11  9  2  0  0  0  0
 12  9  1  0  0  0  0
 12 13  1  0  0  0  0
 13 10  2  0  0  0  0
 14 15  1  0  0  0  0
 14 11  1  0  0  0  0
 15 12  2  0  0  0  0
 16 13  1  1  0  0  0
 16 18  1  0  0  0  0
 17 19  2  0  0  0  0
 17 16  1  0  0  0  0
 18 20  1  0  0  0  0
 19 21  1  0  0  0  0
 20 23  1  0  0  0  0
 21 18  2  0  0  0  0
 21 24  1  0  0  0  0
 22 25  2  0  0  0  0
 22 19  1  0  0  0  0
 23 34  1  0  0  0  0
 24 23  2  0  0  0  0
 26 28  1  0  0  0  0
 26 22  1  0  0  0  0
 27 36  1  0  0  0  0
 27 25  1  0  0  0  0
 28 27  2  0  0  0  0
 30  2  1  0  0  0  0
 31  4  1  0  0  0  0
 35 24  1  0  0  0  0
 37 28  1  0  0  0  0
M  END
$$$$
scan_sander_basal/min_pdbs/min_pdb_C271_300.pdb
 OpenBabel09051719253D

 37 42  0  0  1  0  0  0  0  0999 V2000
    0.0570    0.0930    0.8960 C   0  0  0  0  0  0  0  0  0  0  0  0
    1.2980    0.0700    0.2370 C   0  0  0  0  0  0  0  0  0  0  0  0
   -0.5220    1.2330    1.3190 N   0  0  0  0  0  0  0  0  0  0  0  0
    1.9660    1.2830    0.0060 C   0  0  0  0  0  0  0  0  0  0  0  0
    0.1210    2.3970    1.0940 C   0  0  0  0  0  0  0  0  0  0  0  0
    1.3750    2.4900    0.4420 C   0  0  0  0  0  0  0  0  0  0  0  0
    2.0490    3.8030    0.2260 C   0  0  0  0  0  0  0  0  0  0  0  0
    3.3220    4.0690    0.7710 C   0  0  0  0  0  0  0  0  0  0  0  0
    1.4690    4.8490   -0.5200 C   0  0  0  0  0  0  0  0  0  0  0  0
    3.9720    5.2370    0.6040 N   0  0  0  0  0  0  0  0  0  0  0  0
    0.2610    4.7620   -1.1080 N   0  0  0  0  0  0  0  0  0  0  0  0
    2.1350    6.0570   -0.6950 C   0  0  0  0  0  0  0  0  0  0  0  0
    3.4190    6.2420   -0.1130 C   0  0  0  0  0  0  0  0  0  0  0  0
    0.0440    6.2060   -1.8420 S   0  0  0  0  0  0  0  0  0  0  0  0
    1.4440    6.9530   -1.4380 N   0  0  0  0  0  0  0  0  0  0  0  0
    4.1940    7.5020   -0.2540 C   0  0  1  0  0  0  0  0  0  0  0  0
    3.6740    8.9640   -1.1240 B   0  0  0  0  0  0  0  0  0  0  0  0
    5.4540    7.7320    0.2780 C   0  0  0  0  0  0  0  0  0  0  0  0
    5.1690    9.8230   -0.7430 C   0  0  0  0  0  0  0  0  0  0  0  0
    6.4870    6.6890    1.2300 S   0  0  0  0  0  0  0  0  0  0  0  0
    5.9730    8.9970    0.0060 C   0  0  0  0  0  0  0  0  0  0  0  0
    5.4580   11.1720   -1.1580 C   0  0  0  0  0  0  0  0  0  0  0  0
    7.6770    8.0160    1.2670 C   0  0  0  0  0  0  0  0  0  0  0  0
    7.2680    9.1530    0.5860 C   0  0  0  0  0  0  0  0  0  0  0  0
    6.5990   11.7390   -0.8120 C   0  0  0  0  0  0  0  0  0  0  0  0
    4.3620   12.1390   -2.1190 S   0  0  0  0  0  0  0  0  0  0  0  0
    6.6660   13.0200   -1.3110 C   0  0  0  0  0  0  0  0  0  0  0  0
    5.5610   13.4060   -2.0350 C   0  0  0  0  0  0  0  0  0  0  0  0
   -0.4890   -0.8290    1.0920 H   0  0  0  0  0  0  0  0  0  0  0  0
    1.7290   -0.8720   -0.0890 H   0  0  0  0  0  0  0  0  0  0  0  0
    2.9250    1.2950   -0.5050 H   0  0  0  0  0  0  0  0  0  0  0  0
   -0.3800    3.2970    1.4480 H   0  0  0  0  0  0  0  0  0  0  0  0
    3.8370    3.3140    1.3640 H   0  0  0  0  0  0  0  0  0  0  0  0
    8.6090    7.8620    1.7950 H   0  0  0  0  0  0  0  0  0  0  0  0
    7.8710   10.0490    0.5100 H   0  0  0  0  0  0  0  0  0  0  0  0
    7.5470   13.6180   -1.1110 H   0  0  0  0  0  0  0  0  0  0  0  0
    5.3770   14.3530   -2.5230 H   0  0  0  0  0  0  0  0  0  0  0  0
  1 29  1  0  0  0  0
  1  3  2  0  0  0  0
  2  1  1  0  0  0  0
  4  2  2  0  0  0  0
  4  6  1  0  0  0  0
  5  3  1  0  0  0  0
  5 32  1  0  0  0  0
  6  5  2  0  0  0  0
  7  6  1  0  0  0  0
  7  8  2  0  0  0  0
  8 33  1  0  0  0  0
  9  7  1  0  0  0  0
 10  8  1  0  0  0  0
 11  9  2  0  0  0  0
 12  9  1  0  0  0  0
 12 13  1  0  0  0  0
 13 10  2  0  0  0  0
 14 15  1  0  0  0  0
 14 11  1  0  0  0  0
 15 12  2  0  0  0  0
 16 13  1  1  0  0  0
 16 18  1  0  0  0  0
 17 19  2  0  0  0  0
 17 16  1  0  0  0  0
 18 20  1  0  0  0  0
 19 21  1  0  0  0  0
 20 23  1  0  0  0  0
 21 18  2  0  0  0  0
 21 24  1  0  0  0  0
 22 25  2  0  0  0  0
 22 19  1  0  0  0  0
 23 34  1  0  0  0  0
 24 23  2  0  0  0  0
 26 28  1  0  0  0  0
 26 22  1  0  0  0  0
 27 36  1  0  0  0  0
 27 25  1  0  0  0  0
 28 27  2  0  0  0  0
 30  2  1  0  0  0  0
 31  4  1  0  0  0  0
 35 24  1  0  0  0  0
 37 28  1  0  0  0  0
M  END
$$$$
scan_sander_basal/min_pdbs/min_pdb_C271_315.pdb
 OpenBabel09051719253D

 37 42  0  0  1  0  0  0  0  0999 V2000
    0.0600    0.0750    0.8730 C   0  0  0  0  0  0  0  0  0  0  0  0
    1.4020    0.0560    0.4600 C   0  0  0  0  0  0  0  0  0  0  0  0
   -0.6260    1.2170    1.0620 N   0  0  0  0  0  0  0  0  0  0  0  0
    2.0600    1.2750    0.2330 C   0  0  0  0  0  0  0  0  0  0  0  0
    0.0080    2.3880    0.8410 C   0  0  0  0  0  0  0  0  0  0  0  0
    1.3590    2.4890    0.4230 C   0  0  0  0  0  0  0  0  0  0  0  0
    2.0280    3.8080    0.1990 C   0  0  0  0  0  0  0  0  0  0  0  0
    3.3230    4.0570    0.7010 C   0  0  0  0  0  0  0  0  0  0  0  0
    1.4310    4.8800   -0.5020 C   0  0  0  0  0  0  0  0  0  0  0  0
    3.9760    5.2240    0.5400 N   0  0  0  0  0  0  0  0  0  0  0  0
    0.2080    4.8190   -1.0630 N   0  0  0  0  0  0  0  0  0  0  0  0
    2.1020    6.0860   -0.6730 C   0  0  0  0  0  0  0  0  0  0  0  0
    3.4070    6.2500   -0.1320 C   0  0  0  0  0  0  0  0  0  0  0  0
   -0.0190    6.2810   -1.7560 S   0  0  0  0  0  0  0  0  0  0  0  0
    1.3980    7.0060   -1.3740 N   0  0  0  0  0  0  0  0  0  0  0  0
    4.1870    7.5070   -0.2700 C   0  0  1  0  0  0  0  0  0  0  0  0
    3.6490    8.9940   -1.0840 B   0  0  0  0  0  0  0  0  0  0  0  0
    5.4660    7.7140    0.2240 C   0  0  0  0  0  0  0  0  0  0  0  0
    5.1620    9.8330   -0.7330 C   0  0  0  0  0  0  0  0  0  0  0  0
    6.5230    6.6400    1.1130 S   0  0  0  0  0  0  0  0  0  0  0  0
    5.9850    8.9830   -0.0340 C   0  0  0  0  0  0  0  0  0  0  0  0
    5.4470   11.1900   -1.1240 C   0  0  0  0  0  0  0  0  0  0  0  0
    7.7240    7.9580    1.1420 C   0  0  0  0  0  0  0  0  0  0  0  0
    7.3010    9.1150    0.5040 C   0  0  0  0  0  0  0  0  0  0  0  0
    6.6040   11.7400   -0.8030 C   0  0  0  0  0  0  0  0  0  0  0  0
    4.3260   12.1890   -2.0200 S   0  0  0  0  0  0  0  0  0  0  0  0
    6.6630   13.0340   -1.2710 C   0  0  0  0  0  0  0  0  0  0  0  0
    5.5370   13.4460   -1.9460 C   0  0  0  0  0  0  0  0  0  0  0  0
   -0.4820   -0.8520    1.0580 H   0  0  0  0  0  0  0  0  0  0  0  0
    1.9190   -0.8890    0.3180 H   0  0  0  0  0  0  0  0  0  0  0  0
    3.0970    1.2830   -0.0920 H   0  0  0  0  0  0  0  0  0  0  0  0
   -0.5840    3.2860    1.0140 H   0  0  0  0  0  0  0  0  0  0  0  0
    3.8550    3.2890    1.2620 H   0  0  0  0  0  0  0  0  0  0  0  0
    8.6720    7.7840    1.6340 H   0  0  0  0  0  0  0  0  0  0  0  0
    7.9080   10.0080    0.4300 H   0  0  0  0  0  0  0  0  0  0  0  0
    7.5550   13.6200   -1.0860 H   0  0  0  0  0  0  0  0  0  0  0  0
    5.3430   14.4060   -2.4030 H   0  0  0  0  0  0  0  0  0  0  0  0
  1 29  1  0  0  0  0
  1  3  1  0  0  0  0
  2  1  2  0  0  0  0
  4  6  2  0  0  0  0
  4  2  1  0  0  0  0
  5 32  1  0  0  0  0
  5  3  2  0  0  0  0
  6  5  1  0  0  0  0
  7  6  1  0  0  0  0
  7  8  2  0  0  0  0
  8 33  1  0  0  0  0
  9  7  1  0  0  0  0
 10  8  1  0  0  0  0
 11  9  2  0  0  0  0
 12  9  1  0  0  0  0
 12 13  1  0  0  0  0
 13 10  2  0  0  0  0
 14 15  1  0  0  0  0
 14 11  1  0  0  0  0
 15 12  2  0  0  0  0
 16 13  1  1  0  0  0
 16 18  1  0  0  0  0
 17 19  2  0  0  0  0
 17 16  1  0  0  0  0
 18 20  1  0  0  0  0
 19 21  1  0  0  0  0
 20 23  1  0  0  0  0
 21 18  2  0  0  0  0
 21 24  1  0  0  0  0
 22 25  2  0  0  0  0
 22 19  1  0  0  0  0
 23 34  1  0  0  0  0
 24 23  2  0  0  0  0
 26 28  1  0  0  0  0
 26 22  1  0  0  0  0
 27 36  1  0  0  0  0
 27 25  1  0  0  0  0
 28 27  2  0  0  0  0
 30  2  1  0  0  0  0
 31  4  1  0  0  0  0
 35 24  1  0  0  0  0
 37 28  1  0  0  0  0
M  END
$$$$
scan_sander_basal/min_pdbs/min_pdb_C271_330.pdb
 OpenBabel09051719253D

 37 42  0  0  1  0  0  0  0  0999 V2000
    0.0730    0.0390    0.8530 C   0  0  0  0  0  0  0  0  0  0  0  0
    1.4660    0.0630    0.6910 C   0  0  0  0  0  0  0  0  0  0  0  0
   -0.6790    1.1530    0.8060 N   0  0  0  0  0  0  0  0  0  0  0  0
    2.1040    1.2930    0.4680 C   0  0  0  0  0  0  0  0  0  0  0  0
   -0.0650    2.3340    0.5860 C   0  0  0  0  0  0  0  0  0  0  0  0
    1.3370    2.4850    0.4050 C   0  0  0  0  0  0  0  0  0  0  0  0
    1.9980    3.8170    0.1720 C   0  0  0  0  0  0  0  0  0  0  0  0
    3.3200    4.0490    0.6190 C   0  0  0  0  0  0  0  0  0  0  0  0
    1.3880    4.9190   -0.4780 C   0  0  0  0  0  0  0  0  0  0  0  0
    3.9760    5.2140    0.4660 N   0  0  0  0  0  0  0  0  0  0  0  0
    0.1510    4.8910   -1.0140 N   0  0  0  0  0  0  0  0  0  0  0  0
    2.0660    6.1230   -0.6440 C   0  0  0  0  0  0  0  0  0  0  0  0
    3.3910    6.2620   -0.1530 C   0  0  0  0  0  0  0  0  0  0  0  0
   -0.0830    6.3730   -1.6590 S   0  0  0  0  0  0  0  0  0  0  0  0
    1.3520    7.0700   -1.2990 N   0  0  0  0  0  0  0  0  0  0  0  0
    4.1790    7.5160   -0.2850 C   0  0  1  0  0  0  0  0  0  0  0  0
    3.6250    9.0310   -1.0350 B   0  0  0  0  0  0  0  0  0  0  0  0
    5.4780    7.6970    0.1630 C   0  0  0  0  0  0  0  0  0  0  0  0
    5.1600    9.8450   -0.7210 C   0  0  0  0  0  0  0  0  0  0  0  0
    6.5580    6.5880    0.9780 S   0  0  0  0  0  0  0  0  0  0  0  0
    6.0000    8.9670   -0.0790 C   0  0  0  0  0  0  0  0  0  0  0  0
    5.4450   11.2100   -1.0840 C   0  0  0  0  0  0  0  0  0  0  0  0
    7.7740    7.8920    0.9960 C   0  0  0  0  0  0  0  0  0  0  0  0
    7.3380    9.0710    0.4100 C   0  0  0  0  0  0  0  0  0  0  0  0
    6.6190   11.7390   -0.7940 C   0  0  0  0  0  0  0  0  0  0  0  0
    4.2990   12.2450   -1.9070 S   0  0  0  0  0  0  0  0  0  0  0  0
    6.6740   13.0450   -1.2280 C   0  0  0  0  0  0  0  0  0  0  0  0
    5.5260   13.4870   -1.8460 C   0  0  0  0  0  0  0  0  0  0  0  0
   -0.4560   -0.8970    1.0290 H   0  0  0  0  0  0  0  0  0  0  0  0
    2.0390   -0.8590    0.7340 H   0  0  0  0  0  0  0  0  0  0  0  0
    3.1800    1.3180    0.3250 H   0  0  0  0  0  0  0  0  0  0  0  0
   -0.7240    3.1990    0.5910 H   0  0  0  0  0  0  0  0  0  0  0  0
    3.8720    3.2740    1.1490 H   0  0  0  0  0  0  0  0  0  0  0  0
    8.7390    7.6950    1.4450 H   0  0  0  0  0  0  0  0  0  0  0  0
    7.9510    9.9600    0.3370 H   0  0  0  0  0  0  0  0  0  0  0  0
    7.5790   13.6170   -1.0620 H   0  0  0  0  0  0  0  0  0  0  0  0
    5.3250   14.4620   -2.2680 H   0  0  0  0  0  0  0  0  0  0  0  0
  1 29  1  0  0  0  0
  2 30  1  0  0  0  0
  2  1  2  0  0  0  0
  3  1  1  0  0  0  0
  4  2  1  0  0  0  0
  5 32  1  0  0  0  0
  5  3  2  0  0  0  0
  6  4  2  0  0  0  0
  6  5  1  0  0  0  0
  7  6  1  0  0  0  0
  7  8  2  0  0  0  0
  8 33  1  0  0  0  0
  9  7  1  0  0  0  0
 10  8  1  0  0  0  0
 11  9  2  0  0  0  0
 12  9  1  0  0  0  0
 12 13  1  0  0  0  0
 13 10  2  0  0  0  0
 14 15  1  0  0  0  0
 14 11  1  0  0  0  0
 15 12  2  0  0  0  0
 16 13  1  1  0  0  0
 16 18  1  0  0  0  0
 17 19  2  0  0  0  0
 17 16  1  0  0  0  0
 18 20  1  0  0  0  0
 19 21  1  0  0  0  0
 20 23  1  0  0  0  0
 21 18  2  0  0  0  0
 21 24  1  0  0  0  0
 22 25  2  0  0  0  0
 22 19  1  0  0  0  0
 23 34  1  0  0  0  0
 24 23  2  0  0  0  0
 26 28  1  0  0  0  0
 26 22  1  0  0  0  0
 27 36  1  0  0  0  0
 27 25  1  0  0  0  0
 28 27  2  0  0  0  0
 31  4  1  0  0  0  0
 35 24  1  0  0  0  0
 37 28  1  0  0  0  0
M  END
$$$$
scan_sander_basal/min_pdbs/min_pdb_C271_345.pdb
 OpenBabel09051719253D

 37 42  0  0  1  0  0  0  0  0999 V2000
    0.0890   -0.0100    0.8170 C   0  0  0  0  0  0  0  0  0  0  0  0
    1.4830    0.0820    0.9150 C   0  0  0  0  0  0  0  0  0  0  0  0
   -0.6810    1.0520    0.5270 N   0  0  0  0  0  0  0  0  0  0  0  0
    2.1000    1.3240    0.7000 C   0  0  0  0  0  0  0  0  0  0  0  0
   -0.0850    2.2430    0.3150 C   0  0  0  0  0  0  0  0  0  0  0  0
    1.3210    2.4710    0.3820 C   0  0  0  0  0  0  0  0  0  0  0  0
    1.9760    3.8210    0.1480 C   0  0  0  0  0  0  0  0  0  0  0  0
    3.3190    4.0460    0.5450 C   0  0  0  0  0  0  0  0  0  0  0  0
    1.3550    4.9530   -0.4520 C   0  0  0  0  0  0  0  0  0  0  0  0
    3.9770    5.2100    0.3970 N   0  0  0  0  0  0  0  0  0  0  0  0
    0.1020    4.9640   -0.9510 N   0  0  0  0  0  0  0  0  0  0  0  0
    2.0380    6.1580   -0.6120 C   0  0  0  0  0  0  0  0  0  0  0  0
    3.3800    6.2770   -0.1700 C   0  0  0  0  0  0  0  0  0  0  0  0
   -0.1390    6.4640   -1.5460 S   0  0  0  0  0  0  0  0  0  0  0  0
    1.3140    7.1310   -1.2160 N   0  0  0  0  0  0  0  0  0  0  0  0
    4.1740    7.5270   -0.2990 C   0  0  1  0  0  0  0  0  0  0  0  0
    3.6080    9.0680   -0.9860 B   0  0  0  0  0  0  0  0  0  0  0  0
    5.4910    7.6850    0.1050 C   0  0  0  0  0  0  0  0  0  0  0  0
    5.1600    9.8600   -0.7080 C   0  0  0  0  0  0  0  0  0  0  0  0
    6.5900    6.5450    0.8480 S   0  0  0  0  0  0  0  0  0  0  0  0
    6.0160    8.9570   -0.1220 C   0  0  0  0  0  0  0  0  0  0  0  0
    5.4440   11.2320   -1.0430 C   0  0  0  0  0  0  0  0  0  0  0  0
    7.8180    7.8380    0.8570 C   0  0  0  0  0  0  0  0  0  0  0  0
    7.3710    9.0360    0.3190 C   0  0  0  0  0  0  0  0  0  0  0  0
    6.6330   11.7430   -0.7820 C   0  0  0  0  0  0  0  0  0  0  0  0
    4.2790   12.2990   -1.7940 S   0  0  0  0  0  0  0  0  0  0  0  0
    6.6830   13.0600   -1.1820 C   0  0  0  0  0  0  0  0  0  0  0  0
    5.5180   13.5290   -1.7440 C   0  0  0  0  0  0  0  0  0  0  0  0
   -0.4260   -0.9570    0.9770 H   0  0  0  0  0  0  0  0  0  0  0  0
    2.0740   -0.7980    1.1490 H   0  0  0  0  0  0  0  0  0  0  0  0
    3.1810    1.3720    0.7550 H   0  0  0  0  0  0  0  0  0  0  0  0
   -0.7860    3.0490    0.1290 H   0  0  0  0  0  0  0  0  0  0  0  0
    3.8990    3.2730    1.0410 H   0  0  0  0  0  0  0  0  0  0  0  0
    8.7970    7.6210    1.2640 H   0  0  0  0  0  0  0  0  0  0  0  0
    7.9900    9.9220    0.2480 H   0  0  0  0  0  0  0  0  0  0  0  0
    7.5990   13.6200   -1.0340 H   0  0  0  0  0  0  0  0  0  0  0  0
    5.3110   14.5170   -2.1310 H   0  0  0  0  0  0  0  0  0  0  0  0
  1  2  1  0  0  0  0
  1 29  1  0  0  0  0
  2 30  1  0  0  0  0
  3  1  2  0  0  0  0
  4 31  1  0  0  0  0
  4  2  2  0  0  0  0
  5  6  2  0  0  0  0
  5  3  1  0  0  0  0
  6  4  1  0  0  0  0
  7  6  1  0  0  0  0
  7  8  2  0  0  0  0
  8 33  1  0  0  0  0
  9  7  1  0  0  0  0
 10  8  1  0  0  0  0
 11  9  2  0  0  0  0
 12  9  1  0  0  0  0
 12 13  1  0  0  0  0
 13 10  2  0  0  0  0
 14 15  1  0  0  0  0
 14 11  1  0  0  0  0
 15 12  2  0  0  0  0
 16 13  1  1  0  0  0
 16 18  1  0  0  0  0
 17 19  2  0  0  0  0
 17 16  1  0  0  0  0
 18 20  1  0  0  0  0
 19 21  1  0  0  0  0
 20 23  1  0  0  0  0
 21 18  2  0  0  0  0
 21 24  1  0  0  0  0
 22 25  2  0  0  0  0
 22 19  1  0  0  0  0
 23 34  1  0  0  0  0
 24 23  2  0  0  0  0
 26 28  1  0  0  0  0
 26 22  1  0  0  0  0
 27 36  1  0  0  0  0
 27 25  1  0  0  0  0
 28 27  2  0  0  0  0
 32  5  1  0  0  0  0
 35 24  1  0  0  0  0
 37 28  1  0  0  0  0
M  END
$$$$
scan_sander_basal/min_pdbs/min_pdb_C271_360.pdb
 OpenBabel09051719253D

 37 42  0  0  1  0  0  0  0  0999 V2000
    0.1120   -0.0530    0.7450 C   0  0  0  0  0  0  0  0  0  0  0  0
    1.4510    0.1210    1.1120 C   0  0  0  0  0  0  0  0  0  0  0  0
   -0.6160    0.9390    0.2120 N   0  0  0  0  0  0  0  0  0  0  0  0
    2.0540    1.3740    0.9180 C   0  0  0  0  0  0  0  0  0  0  0  0
   -0.0350    2.1430    0.0270 C   0  0  0  0  0  0  0  0  0  0  0  0
    1.3190    2.4580    0.3560 C   0  0  0  0  0  0  0  0  0  0  0  0
    1.9650    3.8230    0.1410 C   0  0  0  0  0  0  0  0  0  0  0  0
    3.3220    4.0430    0.5000 C   0  0  0  0  0  0  0  0  0  0  0  0
    1.3320    4.9770   -0.4110 C   0  0  0  0  0  0  0  0  0  0  0  0
    3.9820    5.2060    0.3520 N   0  0  0  0  0  0  0  0  0  0  0  0
    0.0520    5.0280   -0.8290 N   0  0  0  0  0  0  0  0  0  0  0  0
    2.0160    6.1840   -0.5650 C   0  0  0  0  0  0  0  0  0  0  0  0
    3.3730    6.2880   -0.1700 C   0  0  0  0  0  0  0  0  0  0  0  0
   -0.2020    6.5440   -1.3730 S   0  0  0  0  0  0  0  0  0  0  0  0
    1.2760    7.1820   -1.1040 N   0  0  0  0  0  0  0  0  0  0  0  0
    4.1700    7.5360   -0.3000 C   0  0  1  0  0  0  0  0  0  0  0  0
    3.5920    9.0950   -0.9340 B   0  0  0  0  0  0  0  0  0  0  0  0
    5.5020    7.6760    0.0590 C   0  0  0  0  0  0  0  0  0  0  0  0
    5.1590    9.8700   -0.6930 C   0  0  0  0  0  0  0  0  0  0  0  0
    6.6190    6.5130    0.7370 S   0  0  0  0  0  0  0  0  0  0  0  0
    6.0280    8.9490   -0.1590 C   0  0  0  0  0  0  0  0  0  0  0  0
    5.4410   11.2480   -1.0090 C   0  0  0  0  0  0  0  0  0  0  0  0
    7.8560    7.7970    0.7300 C   0  0  0  0  0  0  0  0  0  0  0  0
    7.3990    9.0100    0.2350 C   0  0  0  0  0  0  0  0  0  0  0  0
    6.6420   11.7450   -0.7790 C   0  0  0  0  0  0  0  0  0  0  0  0
    4.2570   12.3390   -1.6940 S   0  0  0  0  0  0  0  0  0  0  0  0
    6.6880   13.0700   -1.1510 C   0  0  0  0  0  0  0  0  0  0  0  0
    5.5070   13.5590   -1.6610 C   0  0  0  0  0  0  0  0  0  0  0  0
   -0.3900   -1.0110    0.8800 H   0  0  0  0  0  0  0  0  0  0  0  0
    2.0130   -0.7030    1.5400 H   0  0  0  0  0  0  0  0  0  0  0  0
    3.0900    1.4760    1.2120 H   0  0  0  0  0  0  0  0  0  0  0  0
   -0.7100    2.8680   -0.4070 H   0  0  0  0  0  0  0  0  0  0  0  0
    3.9350    3.2590    0.9320 H   0  0  0  0  0  0  0  0  0  0  0  0
    8.8470    7.5640    1.0970 H   0  0  0  0  0  0  0  0  0  0  0  0
    8.0220    9.8930    0.1610 H   0  0  0  0  0  0  0  0  0  0  0  0
    7.6120   13.6210   -1.0240 H   0  0  0  0  0  0  0  0  0  0  0  0
    5.2930   14.5570   -2.0180 H   0  0  0  0  0  0  0  0  0  0  0  0
  1 29  1  0  0  0  0
  1  2  2  0  0  0  0
  2 30  1  0  0  0  0
  3  1  1  0  0  0  0
  4  2  1  0  0  0  0
  4 31  1  0  0  0  0
  5  3  2  0  0  0  0
  5  6  1  0  0  0  0
  6  4  2  0  0  0  0
  7  6  1  0  0  0  0
  7  8  2  0  0  0  0
  8 33  1  0  0  0  0
  9  7  1  0  0  0  0
 10  8  1  0  0  0  0
 11  9  2  0  0  0  0
 12  9  1  0  0  0  0
 12 13  1  0  0  0  0
 13 10  2  0  0  0  0
 14 15  1  0  0  0  0
 14 11  1  0  0  0  0
 15 12  2  0  0  0  0
 16 13  1  1  0  0  0
 16 18  1  0  0  0  0
 17 19  2  0  0  0  0
 17 16  1  0  0  0  0
 18 20  1  0  0  0  0
 19 21  1  0  0  0  0
 21 18  2  0  0  0  0
 21 24  1  0  0  0  0
 22 25  2  0  0  0  0
 22 19  1  0  0  0  0
 23 20  1  0  0  0  0
 23 34  1  0  0  0  0
 24 23  2  0  0  0  0
 26 28  1  0  0  0  0
 26 22  1  0  0  0  0
 27 36  1  0  0  0  0
 27 25  1  0  0  0  0
 28 27  2  0  0  0  0
 32  5  1  0  0  0  0
 35 24  1  0  0  0  0
 37 28  1  0  0  0  0
M  END
$$$$
