scan_sander_basal/min_pdbs/min_pdb_C271_000.pdb
 OpenBabel09051719273D

 37 42  0  0  1  0  0  0  0  0999 V2000
   -0.0530    0.0910   -0.2780 C   0  0  0  0  0  0  0  0  0  0  0  0
    1.1250    0.2640   -1.0230 C   0  0  0  0  0  0  0  0  0  0  0  0
   -0.5290    1.0330    0.5570 N   0  0  0  0  0  0  0  0  0  0  0  0
    1.8390    1.4660   -0.8940 C   0  0  0  0  0  0  0  0  0  0  0  0
    0.1610    2.1860    0.6820 C   0  0  0  0  0  0  0  0  0  0  0  0
    1.3640    2.4680   -0.0160 C   0  0  0  0  0  0  0  0  0  0  0  0
    2.0870    3.7710    0.1320 C   0  0  0  0  0  0  0  0  0  0  0  0
    2.6010    4.4420   -0.9940 C   0  0  0  0  0  0  0  0  0  0  0  0
    2.3110    4.4110    1.3710 C   0  0  0  0  0  0  0  0  0  0  0  0
    3.2560    5.6150   -0.9280 N   0  0  0  0  0  0  0  0  0  0  0  0
    1.9080    3.8920    2.5480 N   0  0  0  0  0  0  0  0  0  0  0  0
    2.9920    5.6260    1.4500 C   0  0  0  0  0  0  0  0  0  0  0  0
    3.4720    6.2400    0.2550 C   0  0  0  0  0  0  0  0  0  0  0  0
    2.3940    4.9620    3.6780 S   0  0  0  0  0  0  0  0  0  0  0  0
    3.1140    6.0710    2.7170 N   0  0  0  0  0  0  0  0  0  0  0  0
    4.2140    7.5160    0.0420 C   0  0  2  0  0  0  0  0  0  0  0  0
    4.6900    8.0300   -1.5980 B   0  0  0  0  0  0  0  0  0  0  0  0
    4.6540    8.4790    0.9440 C   0  0  0  0  0  0  0  0  0  0  0  0
    5.4580    9.5020   -1.0170 C   0  0  0  0  0  0  0  0  0  0  0  0
    4.5150    8.5990    2.6810 S   0  0  0  0  0  0  0  0  0  0  0  0
    5.3280    9.5530    0.3490 C   0  0  0  0  0  0  0  0  0  0  0  0
    6.0970   10.4720   -1.8720 C   0  0  0  0  0  0  0  0  0  0  0  0
    5.3960   10.1420    2.6080 C   0  0  0  0  0  0  0  0  0  0  0  0
    5.7530   10.5090    1.3230 C   0  0  0  0  0  0  0  0  0  0  0  0
    6.6360   11.5590   -1.3530 C   0  0  0  0  0  0  0  0  0  0  0  0
    6.2050   10.2960   -3.6090 S   0  0  0  0  0  0  0  0  0  0  0  0
    7.1860   12.3390   -2.3450 C   0  0  0  0  0  0  0  0  0  0  0  0
    7.0520   11.8240   -3.6140 C   0  0  0  0  0  0  0  0  0  0  0  0
   -0.6330   -0.8280   -0.3530 H   0  0  0  0  0  0  0  0  0  0  0  0
    1.4740   -0.5210   -1.6860 H   0  0  0  0  0  0  0  0  0  0  0  0
    2.7560    1.6180   -1.4580 H   0  0  0  0  0  0  0  0  0  0  0  0
   -0.2700    2.9230    1.3580 H   0  0  0  0  0  0  0  0  0  0  0  0
    2.4720    4.0260   -1.9930 H   0  0  0  0  0  0  0  0  0  0  0  0
    5.5900   10.6760    3.5290 H   0  0  0  0  0  0  0  0  0  0  0  0
    6.2940   11.4190    1.0970 H   0  0  0  0  0  0  0  0  0  0  0  0
    7.6690   13.2710   -2.0750 H   0  0  0  0  0  0  0  0  0  0  0  0
    7.3950   12.2450   -4.5490 H   0  0  0  0  0  0  0  0  0  0  0  0
  1  3  2  0  0  0  0
  2  4  2  0  0  0  0
  2  1  1  0  0  0  0
  3  5  1  0  0  0  0
  4  6  1  0  0  0  0
  5 32  1  0  0  0  0
  6  7  1  0  0  0  0
  6  5  2  0  0  0  0
  7  9  1  0  0  0  0
  8 10  1  0  0  0  0
  8  7  2  0  0  0  0
  9 12  1  0  0  0  0
  9 11  2  0  0  0  0
 10 13  2  0  0  0  0
 11 14  1  0  0  0  0
 12 15  2  0  0  0  0
 13 12  1  0  0  0  0
 15 14  1  0  0  0  0
 16 13  1  1  0  0  0
 16 18  1  0  0  0  0
 17 19  2  0  0  0  0
 17 16  1  0  0  0  0
 18 20  1  0  0  0  0
 19 21  1  0  0  0  0
 21 18  2  0  0  0  0
 21 24  1  0  0  0  0
 22 25  2  0  0  0  0
 22 19  1  0  0  0  0
 23 20  1  0  0  0  0
 23 34  1  0  0  0  0
 24 23  2  0  0  0  0
 26 22  1  0  0  0  0
 27 36  1  0  0  0  0
 27 25  1  0  0  0  0
 28 26  1  0  0  0  0
 28 27  2  0  0  0  0
 29  1  1  0  0  0  0
 30  2  1  0  0  0  0
 31  4  1  0  0  0  0
 33  8  1  0  0  0  0
 35 24  1  0  0  0  0
 37 28  1  0  0  0  0
M  END
$$$$
scan_sander_basal/min_pdbs/min_pdb_C271_015.pdb
 OpenBabel09051719273D

 37 42  0  0  1  0  0  0  0  0999 V2000
    0.0930    0.0040   -0.1280 C   0  0  0  0  0  0  0  0  0  0  0  0
    1.3750    0.1340   -0.6850 C   0  0  0  0  0  0  0  0  0  0  0  0
   -0.5470    1.0270    0.4690 N   0  0  0  0  0  0  0  0  0  0  0  0
    2.0220    1.3780   -0.6160 C   0  0  0  0  0  0  0  0  0  0  0  0
    0.0780    2.2200    0.5370 C   0  0  0  0  0  0  0  0  0  0  0  0
    1.3740    2.4660    0.0160 C   0  0  0  0  0  0  0  0  0  0  0  0
    2.0260    3.8120    0.0900 C   0  0  0  0  0  0  0  0  0  0  0  0
    2.7080    4.3440   -1.0260 C   0  0  0  0  0  0  0  0  0  0  0  0
    2.0160    4.6310    1.2430 C   0  0  0  0  0  0  0  0  0  0  0  0
    3.3260    5.5400   -1.0250 N   0  0  0  0  0  0  0  0  0  0  0  0
    1.3770    4.3040    2.3830 N   0  0  0  0  0  0  0  0  0  0  0  0
    2.6640    5.8630    1.2560 C   0  0  0  0  0  0  0  0  0  0  0  0
    3.3630    6.2960    0.0970 C   0  0  0  0  0  0  0  0  0  0  0  0
    1.5750    5.5900    3.3690 S   0  0  0  0  0  0  0  0  0  0  0  0
    2.4610    6.5610    2.3960 N   0  0  0  0  0  0  0  0  0  0  0  0
    4.0990    7.5640   -0.1100 C   0  0  2  0  0  0  0  0  0  0  0  0
    4.4950    8.1880   -1.7270 B   0  0  0  0  0  0  0  0  0  0  0  0
    4.7310    8.3500    0.8400 C   0  0  0  0  0  0  0  0  0  0  0  0
    5.4010    9.5490   -1.0640 C   0  0  0  0  0  0  0  0  0  0  0  0
    4.9650    8.0980    2.5520 S   0  0  0  0  0  0  0  0  0  0  0  0
    5.4350    9.4310    0.3050 C   0  0  0  0  0  0  0  0  0  0  0  0
    5.9870   10.5980   -1.8600 C   0  0  0  0  0  0  0  0  0  0  0  0
    5.9320    9.5950    2.5800 C   0  0  0  0  0  0  0  0  0  0  0  0
    6.1070   10.1640    1.3280 C   0  0  0  0  0  0  0  0  0  0  0  0
    6.6370   11.5870   -1.2740 C   0  0  0  0  0  0  0  0  0  0  0  0
    5.8890   10.6500   -3.6060 S   0  0  0  0  0  0  0  0  0  0  0  0
    7.1090   12.4720   -2.2170 C   0  0  0  0  0  0  0  0  0  0  0  0
    6.8060   12.1340   -3.5160 C   0  0  0  0  0  0  0  0  0  0  0  0
   -0.4390   -0.9460   -0.1640 H   0  0  0  0  0  0  0  0  0  0  0  0
    1.8560   -0.7160   -1.1600 H   0  0  0  0  0  0  0  0  0  0  0  0
    3.0170    1.4990   -1.0360 H   0  0  0  0  0  0  0  0  0  0  0  0
   -0.4850    3.0200    1.0160 H   0  0  0  0  0  0  0  0  0  0  0  0
    2.7460    3.7920   -1.9650 H   0  0  0  0  0  0  0  0  0  0  0  0
    6.3350    9.9360    3.5240 H   0  0  0  0  0  0  0  0  0  0  0  0
    6.7100   11.0470    1.1570 H   0  0  0  0  0  0  0  0  0  0  0  0
    7.6660   13.3410   -1.8900 H   0  0  0  0  0  0  0  0  0  0  0  0
    7.0620   12.6630   -4.4240 H   0  0  0  0  0  0  0  0  0  0  0  0
  1  3  2  0  0  0  0
  2  4  2  0  0  0  0
  2  1  1  0  0  0  0
  3  5  1  0  0  0  0
  4  6  1  0  0  0  0
  5 32  1  0  0  0  0
  6  7  1  0  0  0  0
  6  5  2  0  0  0  0
  7  9  1  0  0  0  0
  8 10  1  0  0  0  0
  8  7  2  0  0  0  0
  9 12  1  0  0  0  0
  9 11  2  0  0  0  0
 10 13  2  0  0  0  0
 11 14  1  0  0  0  0
 12 15  2  0  0  0  0
 13 12  1  0  0  0  0
 15 14  1  0  0  0  0
 16 13  1  6  0  0  0
 16 18  1  0  0  0  0
 17 19  2  0  0  0  0
 17 16  1  0  0  0  0
 18 20  1  0  0  0  0
 19 21  1  0  0  0  0
 20 23  1  0  0  0  0
 21 18  2  0  0  0  0
 21 24  1  0  0  0  0
 22 25  2  0  0  0  0
 22 19  1  0  0  0  0
 23 34  1  0  0  0  0
 24 23  2  0  0  0  0
 26 28  1  0  0  0  0
 26 22  1  0  0  0  0
 27 36  1  0  0  0  0
 27 25  1  0  0  0  0
 28 27  2  0  0  0  0
 29  1  1  0  0  0  0
 30  2  1  0  0  0  0
 31  4  1  0  0  0  0
 33  8  1  0  0  0  0
 35 24  1  0  0  0  0
 37 28  1  0  0  0  0
M  END
$$$$
scan_sander_basal/min_pdbs/min_pdb_C271_030.pdb
 OpenBabel09051719273D

 37 42  0  0  1  0  0  0  0  0999 V2000
    0.1150   -0.0030    0.0030 C   0  0  0  0  0  0  0  0  0  0  0  0
    1.4460    0.0820   -0.4350 C   0  0  0  0  0  0  0  0  0  0  0  0
   -0.5760    1.0670    0.4380 N   0  0  0  0  0  0  0  0  0  0  0  0
    2.0890    1.3300   -0.4170 C   0  0  0  0  0  0  0  0  0  0  0  0
    0.0440    2.2650    0.4570 C   0  0  0  0  0  0  0  0  0  0  0  0
    1.3860    2.4690    0.0450 C   0  0  0  0  0  0  0  0  0  0  0  0
    2.0320    3.8190    0.0590 C   0  0  0  0  0  0  0  0  0  0  0  0
    2.8230    4.2520   -1.0300 C   0  0  0  0  0  0  0  0  0  0  0  0
    1.9090    4.7380    1.1280 C   0  0  0  0  0  0  0  0  0  0  0  0
    3.4410    5.4480   -1.0820 N   0  0  0  0  0  0  0  0  0  0  0  0
    1.1700    4.5160    2.2330 N   0  0  0  0  0  0  0  0  0  0  0  0
    2.5520    5.9690    1.0890 C   0  0  0  0  0  0  0  0  0  0  0  0
    3.3500    6.2980   -0.0350 C   0  0  0  0  0  0  0  0  0  0  0  0
    1.2920    5.8890    3.1120 S   0  0  0  0  0  0  0  0  0  0  0  0
    2.2680    6.7720    2.1390 N   0  0  0  0  0  0  0  0  0  0  0  0
    4.0840    7.5570   -0.2340 C   0  0  2  0  0  0  0  0  0  0  0  0
    4.3540    8.3180   -1.8130 B   0  0  0  0  0  0  0  0  0  0  0  0
    4.7910    8.2390    0.7350 C   0  0  0  0  0  0  0  0  0  0  0  0
    5.3550    9.5890   -1.0960 C   0  0  0  0  0  0  0  0  0  0  0  0
    5.1010    7.8130    2.3970 S   0  0  0  0  0  0  0  0  0  0  0  0
    5.4830    9.3460    0.2530 C   0  0  0  0  0  0  0  0  0  0  0  0
    5.9210   10.6910   -1.8320 C   0  0  0  0  0  0  0  0  0  0  0  0
    6.1180    9.2770    2.4980 C   0  0  0  0  0  0  0  0  0  0  0  0
    6.2370    9.9620    1.2970 C   0  0  0  0  0  0  0  0  0  0  0  0
    6.6440   11.6000   -1.2040 C   0  0  0  0  0  0  0  0  0  0  0  0
    5.7040   10.9110   -3.5530 S   0  0  0  0  0  0  0  0  0  0  0  0
    7.0810   12.5560   -2.0930 C   0  0  0  0  0  0  0  0  0  0  0  0
    6.6770   12.3530   -3.3920 C   0  0  0  0  0  0  0  0  0  0  0  0
   -0.4150   -0.9550    0.0030 H   0  0  0  0  0  0  0  0  0  0  0  0
    1.9680   -0.8060   -0.7800 H   0  0  0  0  0  0  0  0  0  0  0  0
    3.1200    1.4160   -0.7470 H   0  0  0  0  0  0  0  0  0  0  0  0
   -0.5590    3.1030    0.8030 H   0  0  0  0  0  0  0  0  0  0  0  0
    2.9540    3.6140   -1.9040 H   0  0  0  0  0  0  0  0  0  0  0  0
    6.5860    9.5170    3.4440 H   0  0  0  0  0  0  0  0  0  0  0  0
    6.8530   10.8440    1.1720 H   0  0  0  0  0  0  0  0  0  0  0  0
    7.6900   13.3740   -1.7270 H   0  0  0  0  0  0  0  0  0  0  0  0
    6.8890   12.9580   -4.2630 H   0  0  0  0  0  0  0  0  0  0  0  0
  1 29  1  0  0  0  0
  1  3  2  0  0  0  0
  2  4  2  0  0  0  0
  2  1  1  0  0  0  0
  3  5  1  0  0  0  0
  4  6  1  0  0  0  0
  5 32  1  0  0  0  0
  6  7  1  0  0  0  0
  6  5  2  0  0  0  0
  7  9  1  0  0  0  0
  8  7  2  0  0  0  0
  9 11  2  0  0  0  0
 10  8  1  0  0  0  0
 10 13  2  0  0  0  0
 11 14  1  0  0  0  0
 12  9  1  0  0  0  0
 12 15  2  0  0  0  0
 13 12  1  0  0  0  0
 15 14  1  0  0  0  0
 16 13  1  6  0  0  0
 16 18  1  0  0  0  0
 17 19  2  0  0  0  0
 17 16  1  0  0  0  0
 18 20  1  0  0  0  0
 19 21  1  0  0  0  0
 20 23  1  0  0  0  0
 21 18  2  0  0  0  0
 21 24  1  0  0  0  0
 22 25  2  0  0  0  0
 22 19  1  0  0  0  0
 23 34  1  0  0  0  0
 24 23  2  0  0  0  0
 26 28  1  0  0  0  0
 26 22  1  0  0  0  0
 27 36  1  0  0  0  0
 27 25  1  0  0  0  0
 28 27  2  0  0  0  0
 30  2  1  0  0  0  0
 31  4  1  0  0  0  0
 33  8  1  0  0  0  0
 35 24  1  0  0  0  0
 37 28  1  0  0  0  0
M  END
$$$$
scan_sander_basal/min_pdbs/min_pdb_C271_045.pdb
 OpenBabel09051719273D

 37 42  0  0  1  0  0  0  0  0999 V2000
    0.0860    0.0130    0.0980 C   0  0  0  0  0  0  0  0  0  0  0  0
    1.4470    0.0530   -0.2460 C   0  0  0  0  0  0  0  0  0  0  0  0
   -0.6180    1.1180    0.4060 N   0  0  0  0  0  0  0  0  0  0  0  0
    2.1060    1.2920   -0.2660 C   0  0  0  0  0  0  0  0  0  0  0  0
    0.0190    2.3080    0.3900 C   0  0  0  0  0  0  0  0  0  0  0  0
    1.3900    2.4670    0.0640 C   0  0  0  0  0  0  0  0  0  0  0  0
    2.0540    3.8080    0.0340 C   0  0  0  0  0  0  0  0  0  0  0  0
    2.9300    4.1580   -1.0210 C   0  0  0  0  0  0  0  0  0  0  0  0
    1.8650    4.7980    1.0270 C   0  0  0  0  0  0  0  0  0  0  0  0
    3.5640    5.3440   -1.1120 N   0  0  0  0  0  0  0  0  0  0  0  0
    1.0600    4.6570    2.0990 N   0  0  0  0  0  0  0  0  0  0  0  0
    2.5220    6.0190    0.9480 C   0  0  0  0  0  0  0  0  0  0  0  0
    3.3880    6.2670   -0.1420 C   0  0  0  0  0  0  0  0  0  0  0  0
    1.1580    6.0810    2.8980 S   0  0  0  0  0  0  0  0  0  0  0  0
    2.2030    6.8890    1.9330 N   0  0  0  0  0  0  0  0  0  0  0  0
    4.1580    7.4990   -0.3370 C   0  0  0  0  0  0  0  0  0  0  0  0
    4.3040    8.3820   -1.8650 B   0  0  0  0  0  0  0  0  0  0  0  0
    4.8760    8.1390    0.6470 C   0  0  0  0  0  0  0  0  0  0  0  0
    5.3410    9.6080   -1.1130 C   0  0  2  0  0  0  0  0  0  0  0  0
    5.2040    7.6290    2.2800 S   0  0  0  0  0  0  0  0  0  0  0  0
    5.5310    9.2840    0.2110 C   0  0  0  0  0  0  0  0  0  0  0  0
    5.8750   10.7550   -1.8020 C   0  0  0  0  0  0  0  0  0  0  0  0
    6.2160    9.0940    2.4350 C   0  0  0  0  0  0  0  0  0  0  0  0
    6.3010    9.8490    1.2720 C   0  0  0  0  0  0  0  0  0  0  0  0
    6.6270   11.6230   -1.1500 C   0  0  0  0  0  0  0  0  0  0  0  0
    5.5820   11.0850   -3.4950 S   0  0  0  0  0  0  0  0  0  0  0  0
    7.0260   12.6350   -1.9940 C   0  0  0  0  0  0  0  0  0  0  0  0
    6.5640   12.5140   -3.2850 C   0  0  0  0  0  0  0  0  0  0  0  0
   -0.4580   -0.9310    0.1230 H   0  0  0  0  0  0  0  0  0  0  0  0
    1.9780   -0.8630   -0.4900 H   0  0  0  0  0  0  0  0  0  0  0  0
    3.1600    1.3440   -0.5240 H   0  0  0  0  0  0  0  0  0  0  0  0
   -0.5950    3.1740    0.6330 H   0  0  0  0  0  0  0  0  0  0  0  0
    3.1200    3.4570   -1.8340 H   0  0  0  0  0  0  0  0  0  0  0  0
    6.7010    9.2880    3.3830 H   0  0  0  0  0  0  0  0  0  0  0  0
    6.8980   10.7480    1.1860 H   0  0  0  0  0  0  0  0  0  0  0  0
    7.6530   13.4280   -1.6040 H   0  0  0  0  0  0  0  0  0  0  0  0
    6.7390   13.1740   -4.1240 H   0  0  0  0  0  0  0  0  0  0  0  0
  1 29  1  0  0  0  0
  1  3  2  0  0  0  0
  2  1  1  0  0  0  0
  4  2  2  0  0  0  0
  4  6  1  0  0  0  0
  5  3  1  0  0  0  0
  5 32  1  0  0  0  0
  6  5  2  0  0  0  0
  7  6  1  0  0  0  0
  7  9  1  0  0  0  0
  8  7  2  0  0  0  0
  9 11  2  0  0  0  0
 10  8  1  0  0  0  0
 10 13  2  0  0  0  0
 11 14  1  0  0  0  0
 12  9  1  0  0  0  0
 12 15  2  0  0  0  0
 13 12  1  0  0  0  0
 15 14  1  0  0  0  0
 16 13  1  0  0  0  0
 16 18  1  0  0  0  0
 17 19  1  0  0  0  0
 17 16  2  0  0  0  0
 18 20  1  0  0  0  0
 19 22  1  1  0  0  0
 19 21  1  0  0  0  0
 20 23  1  0  0  0  0
 21 18  2  0  0  0  0
 21 24  1  0  0  0  0
 22 25  2  0  0  0  0
 23 34  1  0  0  0  0
 24 23  2  0  0  0  0
 26 28  1  0  0  0  0
 26 22  1  0  0  0  0
 27 36  1  0  0  0  0
 27 25  1  0  0  0  0
 28 27  2  0  0  0  0
 30  2  1  0  0  0  0
 31  4  1  0  0  0  0
 33  8  1  0  0  0  0
 35 24  1  0  0  0  0
 37 28  1  0  0  0  0
M  END
$$$$
scan_sander_basal/min_pdbs/min_pdb_C271_060.pdb
 OpenBabel09051719273D

 37 42  0  0  1  0  0  0  0  0999 V2000
    0.0930    0.0220    0.2000 C   0  0  0  0  0  0  0  0  0  0  0  0
    1.4830    0.0390    0.0040 C   0  0  0  0  0  0  0  0  0  0  0  0
   -0.6360    1.1460    0.3320 N   0  0  0  0  0  0  0  0  0  0  0  0
    2.1460    1.2750   -0.0540 C   0  0  0  0  0  0  0  0  0  0  0  0
    0.0030    2.3330    0.2790 C   0  0  0  0  0  0  0  0  0  0  0  0
    1.4020    2.4710    0.0910 C   0  0  0  0  0  0  0  0  0  0  0  0
    2.0690    3.8080    0.0140 C   0  0  0  0  0  0  0  0  0  0  0  0
    3.0560    4.0700   -0.9670 C   0  0  0  0  0  0  0  0  0  0  0  0
    1.7740    4.8790    0.8910 C   0  0  0  0  0  0  0  0  0  0  0  0
    3.6990    5.2490   -1.0950 N   0  0  0  0  0  0  0  0  0  0  0  0
    0.8740    4.8250    1.8920 N   0  0  0  0  0  0  0  0  0  0  0  0
    2.4330    6.0930    0.7710 C   0  0  0  0  0  0  0  0  0  0  0  0
    3.4050    6.2510   -0.2400 C   0  0  0  0  0  0  0  0  0  0  0  0
    0.9140    6.3090    2.5820 S   0  0  0  0  0  0  0  0  0  0  0  0
    2.0510    7.0390    1.6580 N   0  0  0  0  0  0  0  0  0  0  0  0
    4.1550    7.4890   -0.4360 C   0  0  0  0  0  0  0  0  0  0  0  0
    4.1810    8.4970   -1.8890 B   0  0  0  0  0  0  0  0  0  0  0  0
    4.9610    8.0290    0.5330 C   0  0  0  0  0  0  0  0  0  0  0  0
    5.3030    9.6400   -1.1230 C   0  0  2  0  0  0  0  0  0  0  0  0
    5.3250    7.4060    2.1150 S   0  0  0  0  0  0  0  0  0  0  0  0
    5.5910    9.2040    0.1520 C   0  0  0  0  0  0  0  0  0  0  0  0
    5.8090   10.8330   -1.7530 C   0  0  0  0  0  0  0  0  0  0  0  0
    6.3820    8.8360    2.3170 C   0  0  0  0  0  0  0  0  0  0  0  0
    6.4210    9.6780    1.2110 C   0  0  0  0  0  0  0  0  0  0  0  0
    6.6290   11.6280   -1.0910 C   0  0  0  0  0  0  0  0  0  0  0  0
    5.3950   11.3120   -3.3840 S   0  0  0  0  0  0  0  0  0  0  0  0
    6.9860   12.7020   -1.8760 C   0  0  0  0  0  0  0  0  0  0  0  0
    6.4230   12.7010   -3.1310 C   0  0  0  0  0  0  0  0  0  0  0  0
   -0.4540   -0.9190    0.2500 H   0  0  0  0  0  0  0  0  0  0  0  0
    2.0340   -0.8910   -0.0990 H   0  0  0  0  0  0  0  0  0  0  0  0
    3.2220    1.3100   -0.2000 H   0  0  0  0  0  0  0  0  0  0  0  0
   -0.6290    3.2140    0.3780 H   0  0  0  0  0  0  0  0  0  0  0  0
    3.3350    3.3010   -1.6870 H   0  0  0  0  0  0  0  0  0  0  0  0
    6.9140    8.9540    3.2520 H   0  0  0  0  0  0  0  0  0  0  0  0
    7.0200   10.5790    1.1640 H   0  0  0  0  0  0  0  0  0  0  0  0
    7.6590   13.4480   -1.4710 H   0  0  0  0  0  0  0  0  0  0  0  0
    6.5480   13.4270   -3.9230 H   0  0  0  0  0  0  0  0  0  0  0  0
  1 29  1  0  0  0  0
  1  3  2  0  0  0  0
  2  1  1  0  0  0  0
  4  2  2  0  0  0  0
  4  6  1  0  0  0  0
  5  3  1  0  0  0  0
  5 32  1  0  0  0  0
  6  5  2  0  0  0  0
  7  6  1  0  0  0  0
  7  9  1  0  0  0  0
  8  7  2  0  0  0  0
  9 11  2  0  0  0  0
 10  8  1  0  0  0  0
 10 13  2  0  0  0  0
 11 14  1  0  0  0  0
 12  9  1  0  0  0  0
 12 15  2  0  0  0  0
 13 12  1  0  0  0  0
 15 14  1  0  0  0  0
 16 13  1  0  0  0  0
 16 18  1  0  0  0  0
 17 19  1  0  0  0  0
 17 16  2  0  0  0  0
 18 20  1  0  0  0  0
 19 22  1  1  0  0  0
 19 21  1  0  0  0  0
 20 23  1  0  0  0  0
 21 18  2  0  0  0  0
 21 24  1  0  0  0  0
 22 25  2  0  0  0  0
 23 34  1  0  0  0  0
 24 23  2  0  0  0  0
 26 28  1  0  0  0  0
 26 22  1  0  0  0  0
 27 36  1  0  0  0  0
 27 25  1  0  0  0  0
 28 27  2  0  0  0  0
 30  2  1  0  0  0  0
 31  4  1  0  0  0  0
 33  8  1  0  0  0  0
 35 24  1  0  0  0  0
 37 28  1  0  0  0  0
M  END
$$$$
scan_sander_basal/min_pdbs/min_pdb_C271_075.pdb
 OpenBabel09051719273D

 37 42  0  0  1  0  0  0  0  0999 V2000
    0.1090    0.0240    0.2610 C   0  0  0  0  0  0  0  0  0  0  0  0
    1.5120    0.0450    0.2290 C   0  0  0  0  0  0  0  0  0  0  0  0
   -0.6360    1.1440    0.2160 N   0  0  0  0  0  0  0  0  0  0  0  0
    2.1710    1.2820    0.1520 C   0  0  0  0  0  0  0  0  0  0  0  0
   -0.0010    2.3320    0.1450 C   0  0  0  0  0  0  0  0  0  0  0  0
    1.4100    2.4740    0.1130 C   0  0  0  0  0  0  0  0  0  0  0  0
    2.0750    3.8110    0.0080 C   0  0  0  0  0  0  0  0  0  0  0  0
    3.1710    4.0100   -0.8670 C   0  0  0  0  0  0  0  0  0  0  0  0
    1.6720    4.9430    0.7580 C   0  0  0  0  0  0  0  0  0  0  0  0
    3.8170    5.1860   -1.0120 N   0  0  0  0  0  0  0  0  0  0  0  0
    0.6660    4.9540    1.6550 N   0  0  0  0  0  0  0  0  0  0  0  0
    2.3320    6.1530    0.6160 C   0  0  0  0  0  0  0  0  0  0  0  0
    3.4120    6.2450   -0.2830 C   0  0  0  0  0  0  0  0  0  0  0  0
    0.6290    6.4850    2.2330 S   0  0  0  0  0  0  0  0  0  0  0  0
    1.8600    7.1570    1.3880 N   0  0  0  0  0  0  0  0  0  0  0  0
    4.1520    7.4860   -0.4770 C   0  0  0  0  0  0  0  0  0  0  0  0
    4.0620    8.5960   -1.8500 B   0  0  0  0  0  0  0  0  0  0  0  0
    5.0490    7.9420    0.4500 C   0  0  0  0  0  0  0  0  0  0  0  0
    5.2680    9.6690   -1.1060 C   0  0  2  0  0  0  0  0  0  0  0  0
    5.4980    7.2170    1.9630 S   0  0  0  0  0  0  0  0  0  0  0  0
    5.6580    9.1380    0.1050 C   0  0  0  0  0  0  0  0  0  0  0  0
    5.7400   10.8970   -1.6910 C   0  0  0  0  0  0  0  0  0  0  0  0
    6.5960    8.6150    2.1770 C   0  0  0  0  0  0  0  0  0  0  0  0
    6.5700    9.5300    1.1290 C   0  0  0  0  0  0  0  0  0  0  0  0
    6.6290   11.6310   -1.0480 C   0  0  0  0  0  0  0  0  0  0  0  0
    5.1950   11.5000   -3.2400 S   0  0  0  0  0  0  0  0  0  0  0  0
    6.9370   12.7550   -1.7810 C   0  0  0  0  0  0  0  0  0  0  0  0
    6.2680   12.8530   -2.9790 C   0  0  0  0  0  0  0  0  0  0  0  0
   -0.4360   -0.9180    0.3200 H   0  0  0  0  0  0  0  0  0  0  0  0
    2.0760   -0.8830    0.2660 H   0  0  0  0  0  0  0  0  0  0  0  0
    3.2570    1.3210    0.1310 H   0  0  0  0  0  0  0  0  0  0  0  0
   -0.6440    3.2100    0.0980 H   0  0  0  0  0  0  0  0  0  0  0  0
    3.5380    3.1910   -1.4850 H   0  0  0  0  0  0  0  0  0  0  0  0
    7.1940    8.6650    3.0770 H   0  0  0  0  0  0  0  0  0  0  0  0
    7.1740   10.4290    1.1010 H   0  0  0  0  0  0  0  0  0  0  0  0
    7.6570   13.4610   -1.3840 H   0  0  0  0  0  0  0  0  0  0  0  0
    6.3380   13.6340   -3.7240 H   0  0  0  0  0  0  0  0  0  0  0  0
  1 29  1  0  0  0  0
  2  1  1  0  0  0  0
  2 30  1  0  0  0  0
  3  1  2  0  0  0  0
  4  2  2  0  0  0  0
  5  3  1  0  0  0  0
  6  5  2  0  0  0  0
  6  4  1  0  0  0  0
  7  6  1  0  0  0  0
  7  9  1  0  0  0  0
  8  7  2  0  0  0  0
  9 11  2  0  0  0  0
 10  8  1  0  0  0  0
 10 13  2  0  0  0  0
 11 14  1  0  0  0  0
 12  9  1  0  0  0  0
 12 15  2  0  0  0  0
 13 12  1  0  0  0  0
 15 14  1  0  0  0  0
 16 13  1  0  0  0  0
 16 18  1  0  0  0  0
 17 19  1  0  0  0  0
 17 16  2  0  0  0  0
 18 20  1  0  0  0  0
 19 22  1  1  0  0  0
 19 21  1  0  0  0  0
 20 23  1  0  0  0  0
 21 18  2  0  0  0  0
 21 24  1  0  0  0  0
 22 25  2  0  0  0  0
 23 34  1  0  0  0  0
 24 23  2  0  0  0  0
 26 28  1  0  0  0  0
 26 22  1  0  0  0  0
 27 36  1  0  0  0  0
 27 25  1  0  0  0  0
 28 27  2  0  0  0  0
 31  4  1  0  0  0  0
 32  5  1  0  0  0  0
 33  8  1  0  0  0  0
 35 24  1  0  0  0  0
 37 28  1  0  0  0  0
M  END
$$$$
scan_sander_basal/min_pdbs/min_pdb_C271_090.pdb
 OpenBabel09051719273D

 37 42  0  0  1  0  0  0  0  0999 V2000
    0.1290    0.0190    0.2970 C   0  0  0  0  0  0  0  0  0  0  0  0
    1.5250    0.0640    0.4400 C   0  0  0  0  0  0  0  0  0  0  0  0
   -0.6150    1.1190    0.0770 N   0  0  0  0  0  0  0  0  0  0  0  0
    2.1760    1.3050    0.3550 C   0  0  0  0  0  0  0  0  0  0  0  0
    0.0120    2.3100   -0.0020 C   0  0  0  0  0  0  0  0  0  0  0  0
    1.4140    2.4770    0.1330 C   0  0  0  0  0  0  0  0  0  0  0  0
    2.0730    3.8150    0.0140 C   0  0  0  0  0  0  0  0  0  0  0  0
    3.2690    3.9720   -0.7300 C   0  0  0  0  0  0  0  0  0  0  0  0
    1.5670    4.9900    0.6210 C   0  0  0  0  0  0  0  0  0  0  0  0
    3.9170    5.1470   -0.8790 N   0  0  0  0  0  0  0  0  0  0  0  0
    0.4570    5.0460    1.3830 N   0  0  0  0  0  0  0  0  0  0  0  0
    2.2270    6.1990    0.4740 C   0  0  0  0  0  0  0  0  0  0  0  0
    3.4110    6.2470   -0.2850 C   0  0  0  0  0  0  0  0  0  0  0  0
    0.3330    6.6150    1.8380 S   0  0  0  0  0  0  0  0  0  0  0  0
    1.6530    7.2480    1.1040 N   0  0  0  0  0  0  0  0  0  0  0  0
    4.1490    7.4890   -0.4750 C   0  0  0  0  0  0  0  0  0  0  0  0
    3.9480    8.6860   -1.7600 B   0  0  0  0  0  0  0  0  0  0  0  0
    5.1360    7.8750    0.3900 C   0  0  0  0  0  0  0  0  0  0  0  0
    5.2360    9.6960   -1.0650 C   0  0  2  0  0  0  0  0  0  0  0  0
    5.7040    7.0520    1.8090 S   0  0  0  0  0  0  0  0  0  0  0  0
    5.7280    9.0850    0.0670 C   0  0  0  0  0  0  0  0  0  0  0  0
    5.6710   10.9550   -1.6130 C   0  0  0  0  0  0  0  0  0  0  0  0
    6.8400    8.4220    2.0090 C   0  0  0  0  0  0  0  0  0  0  0  0
    6.7350    9.4010    1.0270 C   0  0  0  0  0  0  0  0  0  0  0  0
    6.6280   11.6370   -1.0110 C   0  0  0  0  0  0  0  0  0  0  0  0
    4.9940   11.6620   -3.0630 S   0  0  0  0  0  0  0  0  0  0  0  0
    6.8850   12.8030   -1.6970 C   0  0  0  0  0  0  0  0  0  0  0  0
    6.1090   12.9850   -2.8180 C   0  0  0  0  0  0  0  0  0  0  0  0
   -0.4090   -0.9270    0.3570 H   0  0  0  0  0  0  0  0  0  0  0  0
    2.0890   -0.8470    0.6160 H   0  0  0  0  0  0  0  0  0  0  0  0
    3.2560    1.3630    0.4670 H   0  0  0  0  0  0  0  0  0  0  0  0
   -0.6290    3.1690   -0.1930 H   0  0  0  0  0  0  0  0  0  0  0  0
    3.7190    3.1180   -1.2350 H   0  0  0  0  0  0  0  0  0  0  0  0
    7.5170    8.4080    2.8530 H   0  0  0  0  0  0  0  0  0  0  0  0
    7.3470   10.2950    1.0010 H   0  0  0  0  0  0  0  0  0  0  0  0
    7.6500   13.4740   -1.3250 H   0  0  0  0  0  0  0  0  0  0  0  0
    6.1220   13.8120   -3.5150 H   0  0  0  0  0  0  0  0  0  0  0  0
  1 29  1  0  0  0  0
  1  2  2  0  0  0  0
  2 30  1  0  0  0  0
  3  1  1  0  0  0  0
  4  2  1  0  0  0  0
  4 31  1  0  0  0  0
  5  3  2  0  0  0  0
  5  6  1  0  0  0  0
  6  4  2  0  0  0  0
  7  6  1  0  0  0  0
  7  9  1  0  0  0  0
  8  7  2  0  0  0  0
  9 11  2  0  0  0  0
 10  8  1  0  0  0  0
 10 13  2  0  0  0  0
 11 14  1  0  0  0  0
 12  9  1  0  0  0  0
 12 15  2  0  0  0  0
 13 12  1  0  0  0  0
 15 14  1  0  0  0  0
 16 13  1  0  0  0  0
 16 18  1  0  0  0  0
 17 19  1  0  0  0  0
 17 16  2  0  0  0  0
 18 20  1  0  0  0  0
 19 22  1  1  0  0  0
 19 21  1  0  0  0  0
 20 23  1  0  0  0  0
 21 18  2  0  0  0  0
 21 24  1  0  0  0  0
 22 25  2  0  0  0  0
 23 34  1  0  0  0  0
 24 23  2  0  0  0  0
 26 28  1  0  0  0  0
 26 22  1  0  0  0  0
 27 36  1  0  0  0  0
 27 25  1  0  0  0  0
 28 27  2  0  0  0  0
 32  5  1  0  0  0  0
 33  8  1  0  0  0  0
 35 24  1  0  0  0  0
 37 28  1  0  0  0  0
M  END
$$$$
scan_sander_basal/min_pdbs/min_pdb_C271_105.pdb
 OpenBabel09051719273D

 37 42  0  0  1  0  0  0  0  0999 V2000
    0.1410    0.0140    0.3250 C   0  0  0  0  0  0  0  0  0  0  0  0
    1.5060    0.0950    0.6440 C   0  0  0  0  0  0  0  0  0  0  0  0
   -0.5780    1.0830   -0.0670 N   0  0  0  0  0  0  0  0  0  0  0  0
    2.1520    1.3390    0.5540 C   0  0  0  0  0  0  0  0  0  0  0  0
    0.0430    2.2770   -0.1490 C   0  0  0  0  0  0  0  0  0  0  0  0
    1.4140    2.4780    0.1530 C   0  0  0  0  0  0  0  0  0  0  0  0
    2.0710    3.8170    0.0250 C   0  0  0  0  0  0  0  0  0  0  0  0
    3.3520    3.9430   -0.5680 C   0  0  0  0  0  0  0  0  0  0  0  0
    1.4800    5.0220    0.4770 C   0  0  0  0  0  0  0  0  0  0  0  0
    4.0030    5.1160   -0.7150 N   0  0  0  0  0  0  0  0  0  0  0  0
    0.2790    5.1110    1.0810 N   0  0  0  0  0  0  0  0  0  0  0  0
    2.1430    6.2290    0.3310 C   0  0  0  0  0  0  0  0  0  0  0  0
    3.4170    6.2460   -0.2690 C   0  0  0  0  0  0  0  0  0  0  0  0
    0.0830    6.7050    1.4030 S   0  0  0  0  0  0  0  0  0  0  0  0
    1.4800    7.3090    0.8010 N   0  0  0  0  0  0  0  0  0  0  0  0
    4.1560    7.4890   -0.4540 C   0  0  0  0  0  0  0  0  0  0  0  0
    3.8490    8.7640   -1.6390 B   0  0  0  0  0  0  0  0  0  0  0  0
    5.2240    7.8160    0.3360 C   0  0  0  0  0  0  0  0  0  0  0  0
    5.2090    9.7210   -1.0120 C   0  0  2  0  0  0  0  0  0  0  0  0
    5.9130    6.9080    1.6470 S   0  0  0  0  0  0  0  0  0  0  0  0
    5.7980    9.0390    0.0300 C   0  0  0  0  0  0  0  0  0  0  0  0
    5.6060   11.0080   -1.5230 C   0  0  0  0  0  0  0  0  0  0  0  0
    7.0780    8.2560    1.8180 C   0  0  0  0  0  0  0  0  0  0  0  0
    6.8930    9.2930    0.9090 C   0  0  0  0  0  0  0  0  0  0  0  0
    6.6240   11.6460   -0.9750 C   0  0  0  0  0  0  0  0  0  0  0  0
    4.8040   11.8060   -2.8570 S   0  0  0  0  0  0  0  0  0  0  0  0
    6.8300   12.8490   -1.6120 C   0  0  0  0  0  0  0  0  0  0  0  0
    5.9530   13.1040   -2.6420 C   0  0  0  0  0  0  0  0  0  0  0  0
   -0.3920   -0.9340    0.3830 H   0  0  0  0  0  0  0  0  0  0  0  0
    2.0500   -0.7910    0.9550 H   0  0  0  0  0  0  0  0  0  0  0  0
    3.2060    1.4240    0.8010 H   0  0  0  0  0  0  0  0  0  0  0  0
   -0.5750    3.1090   -0.4820 H   0  0  0  0  0  0  0  0  0  0  0  0
    3.8710    3.0640   -0.9490 H   0  0  0  0  0  0  0  0  0  0  0  0
    7.8310    8.1880    2.5920 H   0  0  0  0  0  0  0  0  0  0  0  0
    7.5110   10.1820    0.8780 H   0  0  0  0  0  0  0  0  0  0  0  0
    7.6350   13.4910   -1.2760 H   0  0  0  0  0  0  0  0  0  0  0  0
    5.9110   13.9710   -3.2870 H   0  0  0  0  0  0  0  0  0  0  0  0
  1 29  1  0  0  0  0
  1  2  2  0  0  0  0
  2 30  1  0  0  0  0
  3  1  1  0  0  0  0
  4  2  1  0  0  0  0
  4 31  1  0  0  0  0
  5  3  2  0  0  0  0
  5  6  1  0  0  0  0
  6  4  2  0  0  0  0
  7  6  1  0  0  0  0
  7  9  1  0  0  0  0
  8  7  2  0  0  0  0
  9 11  2  0  0  0  0
 10  8  1  0  0  0  0
 10 13  2  0  0  0  0
 11 14  1  0  0  0  0
 12  9  1  0  0  0  0
 12 15  2  0  0  0  0
 13 12  1  0  0  0  0
 15 14  1  0  0  0  0
 16 13  1  0  0  0  0
 16 18  1  0  0  0  0
 17 19  1  0  0  0  0
 17 16  2  0  0  0  0
 18 20  1  0  0  0  0
 19 22  1  1  0  0  0
 19 21  1  0  0  0  0
 20 23  1  0  0  0  0
 21 18  2  0  0  0  0
 21 24  1  0  0  0  0
 22 25  2  0  0  0  0
 23 34  1  0  0  0  0
 24 23  2  0  0  0  0
 26 28  1  0  0  0  0
 26 22  1  0  0  0  0
 27 36  1  0  0  0  0
 27 25  1  0  0  0  0
 28 27  2  0  0  0  0
 32  5  1  0  0  0  0
 33  8  1  0  0  0  0
 35 24  1  0  0  0  0
 37 28  1  0  0  0  0
M  END
$$$$
scan_sander_basal/min_pdbs/min_pdb_C271_120.pdb
 OpenBabel09051719273D

 37 42  0  0  1  0  0  0  0  0999 V2000
    0.1420    0.0110    0.3490 C   0  0  0  0  0  0  0  0  0  0  0  0
    1.4530    0.1350    0.8360 C   0  0  0  0  0  0  0  0  0  0  0  0
   -0.5270    1.0390   -0.2060 N   0  0  0  0  0  0  0  0  0  0  0  0
    2.0960    1.3800    0.7460 C   0  0  0  0  0  0  0  0  0  0  0  0
    0.0920    2.2350   -0.2890 C   0  0  0  0  0  0  0  0  0  0  0  0
    1.4100    2.4780    0.1750 C   0  0  0  0  0  0  0  0  0  0  0  0
    2.0690    3.8150    0.0410 C   0  0  0  0  0  0  0  0  0  0  0  0
    3.4150    3.9210   -0.3870 C   0  0  0  0  0  0  0  0  0  0  0  0
    1.4160    5.0380    0.3280 C   0  0  0  0  0  0  0  0  0  0  0  0
    4.0710    5.0910   -0.5280 N   0  0  0  0  0  0  0  0  0  0  0  0
    0.1450    5.1470    0.7620 N   0  0  0  0  0  0  0  0  0  0  0  0
    2.0840    6.2440    0.1860 C   0  0  0  0  0  0  0  0  0  0  0  0
    3.4270    6.2420   -0.2400 C   0  0  0  0  0  0  0  0  0  0  0  0
   -0.1040    6.7550    0.9470 S   0  0  0  0  0  0  0  0  0  0  0  0
    1.3560    7.3410    0.4910 N   0  0  0  0  0  0  0  0  0  0  0  0
    4.1720    7.4840   -0.4230 C   0  0  0  0  0  0  0  0  0  0  0  0
    3.7650    8.8320   -1.4940 B   0  0  0  0  0  0  0  0  0  0  0  0
    5.3150    7.7630    0.2800 C   0  0  0  0  0  0  0  0  0  0  0  0
    5.1890    9.7450   -0.9490 C   0  0  2  0  0  0  0  0  0  0  0  0
    6.1160    6.7880    1.4760 S   0  0  0  0  0  0  0  0  0  0  0  0
    5.8680    9.0010   -0.0090 C   0  0  0  0  0  0  0  0  0  0  0  0
    5.5470   11.0560   -1.4240 C   0  0  0  0  0  0  0  0  0  0  0  0
    7.3030    8.1210    1.6080 C   0  0  0  0  0  0  0  0  0  0  0  0
    7.0420    9.2050    0.7760 C   0  0  0  0  0  0  0  0  0  0  0  0
    6.6200   11.6580   -0.9430 C   0  0  0  0  0  0  0  0  0  0  0  0
    4.6280   11.9310   -2.6270 S   0  0  0  0  0  0  0  0  0  0  0  0
    6.7740   12.8940   -1.5290 C   0  0  0  0  0  0  0  0  0  0  0  0
    5.8050   13.2100   -2.4530 C   0  0  0  0  0  0  0  0  0  0  0  0
   -0.3880   -0.9400    0.4030 H   0  0  0  0  0  0  0  0  0  0  0  0
    1.9580   -0.7200    1.2760 H   0  0  0  0  0  0  0  0  0  0  0  0
    3.1090    1.4980    1.1210 H   0  0  0  0  0  0  0  0  0  0  0  0
   -0.4840    3.0320   -0.7560 H   0  0  0  0  0  0  0  0  0  0  0  0
    3.9850    3.0260   -0.6370 H   0  0  0  0  0  0  0  0  0  0  0  0
    8.1240    8.0110    2.3040 H   0  0  0  0  0  0  0  0  0  0  0  0
    7.6590   10.0940    0.7360 H   0  0  0  0  0  0  0  0  0  0  0  0
    7.6140   13.5130   -1.2380 H   0  0  0  0  0  0  0  0  0  0  0  0
    5.7080   14.1120   -3.0420 H   0  0  0  0  0  0  0  0  0  0  0  0
  1 29  1  0  0  0  0
  1  2  2  0  0  0  0
  2 30  1  0  0  0  0
  3  1  1  0  0  0  0
  4  2  1  0  0  0  0
  4 31  1  0  0  0  0
  5  3  2  0  0  0  0
  5  6  1  0  0  0  0
  6  4  2  0  0  0  0
  7  6  1  0  0  0  0
  7  9  1  0  0  0  0
  8  7  2  0  0  0  0
  9 11  2  0  0  0  0
 10  8  1  0  0  0  0
 10 13  2  0  0  0  0
 11 14  1  0  0  0  0
 12  9  1  0  0  0  0
 12 15  2  0  0  0  0
 13 12  1  0  0  0  0
 15 14  1  0  0  0  0
 16 13  1  0  0  0  0
 16 18  1  0  0  0  0
 17 19  1  0  0  0  0
 17 16  2  0  0  0  0
 18 20  1  0  0  0  0
 19 22  1  1  0  0  0
 19 21  1  0  0  0  0
 20 23  1  0  0  0  0
 21 18  2  0  0  0  0
 21 24  1  0  0  0  0
 22 25  2  0  0  0  0
 23 34  1  0  0  0  0
 24 23  2  0  0  0  0
 26 28  1  0  0  0  0
 26 22  1  0  0  0  0
 27 36  1  0  0  0  0
 27 25  1  0  0  0  0
 28 27  2  0  0  0  0
 32  5  1  0  0  0  0
 33  8  1  0  0  0  0
 35 24  1  0  0  0  0
 37 28  1  0  0  0  0
M  END
$$$$
scan_sander_basal/min_pdbs/min_pdb_C271_135.pdb
 OpenBabel09051719273D

 37 42  0  0  1  0  0  0  0  0999 V2000
    0.1410    0.0030    0.3730 C   0  0  0  0  0  0  0  0  0  0  0  0
    1.3760    0.1800    1.0160 C   0  0  0  0  0  0  0  0  0  0  0  0
   -0.4580    0.9820   -0.3310 N   0  0  0  0  0  0  0  0  0  0  0  0
    2.0160    1.4270    0.9270 C   0  0  0  0  0  0  0  0  0  0  0  0
    0.1570    2.1800   -0.4130 C   0  0  0  0  0  0  0  0  0  0  0  0
    1.4020    2.4740    0.1990 C   0  0  0  0  0  0  0  0  0  0  0  0
    2.0620    3.8100    0.0630 C   0  0  0  0  0  0  0  0  0  0  0  0
    3.4510    3.9100   -0.1940 C   0  0  0  0  0  0  0  0  0  0  0  0
    1.3700    5.0390    0.1800 C   0  0  0  0  0  0  0  0  0  0  0  0
    4.1100    5.0790   -0.3280 N   0  0  0  0  0  0  0  0  0  0  0  0
    0.0530    5.1520    0.4420 N   0  0  0  0  0  0  0  0  0  0  0  0
    2.0400    6.2450    0.0440 C   0  0  0  0  0  0  0  0  0  0  0  0
    3.4300    6.2400   -0.2050 C   0  0  0  0  0  0  0  0  0  0  0  0
   -0.2350    6.7620    0.4890 S   0  0  0  0  0  0  0  0  0  0  0  0
    1.2650    7.3440    0.1860 N   0  0  0  0  0  0  0  0  0  0  0  0
    4.1860    7.4840   -0.3840 C   0  0  0  0  0  0  0  0  0  0  0  0
    3.6950    8.8990   -1.3290 B   0  0  0  0  0  0  0  0  0  0  0  0
    5.3980    7.7190    0.2180 C   0  0  0  0  0  0  0  0  0  0  0  0
    5.1740    9.7700   -0.8810 C   0  0  2  0  0  0  0  0  0  0  0  0
    6.3040    6.6920    1.2940 S   0  0  0  0  0  0  0  0  0  0  0  0
    5.9320    8.9710   -0.0550 C   0  0  0  0  0  0  0  0  0  0  0  0
    5.4980   11.1040   -1.3190 C   0  0  0  0  0  0  0  0  0  0  0  0
    7.5090    8.0110    1.3750 C   0  0  0  0  0  0  0  0  0  0  0  0
    7.1770    9.1330    0.6250 C   0  0  0  0  0  0  0  0  0  0  0  0
    6.6200   11.6730   -0.9170 C   0  0  0  0  0  0  0  0  0  0  0  0
    4.4730   12.0470   -2.3760 S   0  0  0  0  0  0  0  0  0  0  0  0
    6.7290   12.9380   -1.4490 C   0  0  0  0  0  0  0  0  0  0  0  0
    5.6760   13.3080   -2.2540 C   0  0  0  0  0  0  0  0  0  0  0  0
   -0.3840   -0.9500    0.4210 H   0  0  0  0  0  0  0  0  0  0  0  0
    1.8260   -0.6350    1.5740 H   0  0  0  0  0  0  0  0  0  0  0  0
    2.9710    1.5860    1.4210 H   0  0  0  0  0  0  0  0  0  0  0  0
   -0.3590    2.9350   -1.0040 H   0  0  0  0  0  0  0  0  0  0  0  0
    4.0560    3.0100   -0.3070 H   0  0  0  0  0  0  0  0  0  0  0  0
    8.3910    7.8650    1.9850 H   0  0  0  0  0  0  0  0  0  0  0  0
    7.7930   10.0230    0.5730 H   0  0  0  0  0  0  0  0  0  0  0  0
    7.6000   13.5350   -1.2110 H   0  0  0  0  0  0  0  0  0  0  0  0
    5.5310   14.2410   -2.7810 H   0  0  0  0  0  0  0  0  0  0  0  0
  1 29  1  0  0  0  0
  1  2  2  0  0  0  0
  2 30  1  0  0  0  0
  3  1  1  0  0  0  0
  4  2  1  0  0  0  0
  4 31  1  0  0  0  0
  5  3  2  0  0  0  0
  5  6  1  0  0  0  0
  6  4  2  0  0  0  0
  7  9  1  0  0  0  0
  7  6  1  0  0  0  0
  8  7  2  0  0  0  0
  9 11  2  0  0  0  0
 10 13  2  0  0  0  0
 10  8  1  0  0  0  0
 11 14  1  0  0  0  0
 12  9  1  0  0  0  0
 12 15  2  0  0  0  0
 13 12  1  0  0  0  0
 15 14  1  0  0  0  0
 16 13  1  0  0  0  0
 16 18  1  0  0  0  0
 17 19  1  0  0  0  0
 17 16  2  0  0  0  0
 18 20  1  0  0  0  0
 19 22  1  1  0  0  0
 19 21  1  0  0  0  0
 20 23  1  0  0  0  0
 21 18  2  0  0  0  0
 21 24  1  0  0  0  0
 22 25  2  0  0  0  0
 23 34  1  0  0  0  0
 24 23  2  0  0  0  0
 26 28  1  0  0  0  0
 26 22  1  0  0  0  0
 27 36  1  0  0  0  0
 27 25  1  0  0  0  0
 28 27  2  0  0  0  0
 32  5  1  0  0  0  0
 33  8  1  0  0  0  0
 35 24  1  0  0  0  0
 37 28  1  0  0  0  0
M  END
$$$$
scan_sander_basal/min_pdbs/min_pdb_C271_150.pdb
 OpenBabel09051719273D

 37 42  0  0  1  0  0  0  0  0999 V2000
    0.1450   -0.0100    0.4090 C   0  0  0  0  0  0  0  0  0  0  0  0
    1.2850    0.2330    1.1920 C   0  0  0  0  0  0  0  0  0  0  0  0
   -0.3690    0.9070   -0.4320 N   0  0  0  0  0  0  0  0  0  0  0  0
    1.9180    1.4830    1.1000 C   0  0  0  0  0  0  0  0  0  0  0  0
    0.2400    2.1090   -0.5160 C   0  0  0  0  0  0  0  0  0  0  0  0
    1.3920    2.4670    0.2300 C   0  0  0  0  0  0  0  0  0  0  0  0
    2.0500    3.8030    0.0880 C   0  0  0  0  0  0  0  0  0  0  0  0
    3.4570    3.9130    0.0060 C   0  0  0  0  0  0  0  0  0  0  0  0
    1.3380    5.0240    0.0310 C   0  0  0  0  0  0  0  0  0  0  0  0
    4.1140    5.0830   -0.1230 N   0  0  0  0  0  0  0  0  0  0  0  0
   -0.0030    5.1240    0.1190 N   0  0  0  0  0  0  0  0  0  0  0  0
    2.0080    6.2330   -0.1020 C   0  0  0  0  0  0  0  0  0  0  0  0
    3.4210    6.2430   -0.1740 C   0  0  0  0  0  0  0  0  0  0  0  0
   -0.3190    6.7260    0.0250 S   0  0  0  0  0  0  0  0  0  0  0  0
    1.2000    7.3190   -0.1250 N   0  0  0  0  0  0  0  0  0  0  0  0
    4.1910    7.4900   -0.3430 C   0  0  1  0  0  0  0  0  0  0  0  0
    3.6390    8.9700   -1.1520 B   0  0  0  0  0  0  0  0  0  0  0  0
    5.4660    7.6850    0.1470 C   0  0  0  0  0  0  0  0  0  0  0  0
    5.1650    9.8000   -0.8090 C   0  0  0  0  0  0  0  0  0  0  0  0
    6.4710    6.6100    1.0840 S   0  0  0  0  0  0  0  0  0  0  0  0
    5.9870    8.9490   -0.1080 C   0  0  0  0  0  0  0  0  0  0  0  0
    5.4620   11.1530   -1.2060 C   0  0  0  0  0  0  0  0  0  0  0  0
    7.6910    7.9150    1.1100 C   0  0  0  0  0  0  0  0  0  0  0  0
    7.2940    9.0720    0.4530 C   0  0  0  0  0  0  0  0  0  0  0  0
    6.6250   11.6920   -0.8900 C   0  0  0  0  0  0  0  0  0  0  0  0
    4.3480   12.1600   -2.1030 S   0  0  0  0  0  0  0  0  0  0  0  0
    6.6960   12.9830   -1.3630 C   0  0  0  0  0  0  0  0  0  0  0  0
    5.5720   13.4040   -2.0370 C   0  0  0  0  0  0  0  0  0  0  0  0
   -0.3720   -0.9680    0.4550 H   0  0  0  0  0  0  0  0  0  0  0  0
    1.6670   -0.5350    1.8570 H   0  0  0  0  0  0  0  0  0  0  0  0
    2.7980    1.6930    1.7010 H   0  0  0  0  0  0  0  0  0  0  0  0
   -0.2030    2.8140   -1.2180 H   0  0  0  0  0  0  0  0  0  0  0  0
    4.0830    3.0210    0.0340 H   0  0  0  0  0  0  0  0  0  0  0  0
    8.6270    7.7350    1.6220 H   0  0  0  0  0  0  0  0  0  0  0  0
    7.9090    9.9610    0.3860 H   0  0  0  0  0  0  0  0  0  0  0  0
    7.5950   13.5600   -1.1830 H   0  0  0  0  0  0  0  0  0  0  0  0
    5.3870   14.3650   -2.4970 H   0  0  0  0  0  0  0  0  0  0  0  0
  1 29  1  0  0  0  0
  1  2  2  0  0  0  0
  2 30  1  0  0  0  0
  3  1  1  0  0  0  0
  4  2  1  0  0  0  0
  4 31  1  0  0  0  0
  5  3  2  0  0  0  0
  5  6  1  0  0  0  0
  6  4  2  0  0  0  0
  7  6  1  0  0  0  0
  8 33  1  0  0  0  0
  8  7  2  0  0  0  0
  9  7  1  0  0  0  0
  9 11  2  0  0  0  0
 10  8  1  0  0  0  0
 12  9  1  0  0  0  0
 13 10  2  0  0  0  0
 13 12  1  0  0  0  0
 14 11  1  0  0  0  0
 15 12  2  0  0  0  0
 15 14  1  0  0  0  0
 16 13  1  1  0  0  0
 16 18  1  0  0  0  0
 17 19  2  0  0  0  0
 17 16  1  0  0  0  0
 18 20  1  0  0  0  0
 19 21  1  0  0  0  0
 20 23  1  0  0  0  0
 21 18  2  0  0  0  0
 21 24  1  0  0  0  0
 22 25  2  0  0  0  0
 22 19  1  0  0  0  0
 23 34  1  0  0  0  0
 24 23  2  0  0  0  0
 26 28  1  0  0  0  0
 26 22  1  0  0  0  0
 27 36  1  0  0  0  0
 27 25  1  0  0  0  0
 28 27  2  0  0  0  0
 32  5  1  0  0  0  0
 35 24  1  0  0  0  0
 37 28  1  0  0  0  0
M  END
$$$$
scan_sander_basal/min_pdbs/min_pdb_C271_165.pdb
 OpenBabel09051719273D

 37 42  0  0  1  0  0  0  0  0999 V2000
    0.1520   -0.0220    0.4710 C   0  0  0  0  0  0  0  0  0  0  0  0
    1.1780    0.3010    1.3730 C   0  0  0  0  0  0  0  0  0  0  0  0
   -0.2580    0.8200   -0.4960 N   0  0  0  0  0  0  0  0  0  0  0  0
    1.8030    1.5540    1.2700 C   0  0  0  0  0  0  0  0  0  0  0  0
    0.3420    2.0250   -0.5910 C   0  0  0  0  0  0  0  0  0  0  0  0
    1.3830    2.4610    0.2680 C   0  0  0  0  0  0  0  0  0  0  0  0
    2.0390    3.7970    0.1130 C   0  0  0  0  0  0  0  0  0  0  0  0
    3.4420    3.9310    0.2040 C   0  0  0  0  0  0  0  0  0  0  0  0
    1.3290    4.9960   -0.1270 C   0  0  0  0  0  0  0  0  0  0  0  0
    4.0940    5.1020    0.0720 N   0  0  0  0  0  0  0  0  0  0  0  0
   -0.0140    5.0690   -0.2180 N   0  0  0  0  0  0  0  0  0  0  0  0
    1.9960    6.2080   -0.2630 C   0  0  0  0  0  0  0  0  0  0  0  0
    3.4110    6.2460   -0.1580 C   0  0  0  0  0  0  0  0  0  0  0  0
   -0.3400    6.6500   -0.4730 S   0  0  0  0  0  0  0  0  0  0  0  0
    1.1760    7.2650   -0.4700 N   0  0  0  0  0  0  0  0  0  0  0  0
    4.1930    7.4970   -0.3110 C   0  0  1  0  0  0  0  0  0  0  0  0
    3.5990    9.0340   -0.9770 B   0  0  0  0  0  0  0  0  0  0  0  0
    5.5160    7.6570    0.0650 C   0  0  0  0  0  0  0  0  0  0  0  0
    5.1570    9.8300   -0.7360 C   0  0  0  0  0  0  0  0  0  0  0  0
    6.6140    6.5280    0.8230 S   0  0  0  0  0  0  0  0  0  0  0  0
    6.0290    8.9310   -0.1680 C   0  0  0  0  0  0  0  0  0  0  0  0
    5.4310   11.2030   -1.0800 C   0  0  0  0  0  0  0  0  0  0  0  0
    7.8410    7.8230    0.8040 C   0  0  0  0  0  0  0  0  0  0  0  0
    7.3880    9.0170    0.2610 C   0  0  0  0  0  0  0  0  0  0  0  0
    6.6250   11.7150   -0.8480 C   0  0  0  0  0  0  0  0  0  0  0  0
    4.2470   12.2670   -1.8060 S   0  0  0  0  0  0  0  0  0  0  0  0
    6.6640   13.0320   -1.2500 C   0  0  0  0  0  0  0  0  0  0  0  0
    5.4860   13.4980   -1.7860 C   0  0  0  0  0  0  0  0  0  0  0  0
   -0.3550   -0.9860    0.5210 H   0  0  0  0  0  0  0  0  0  0  0  0
    1.4800   -0.4080    2.1380 H   0  0  0  0  0  0  0  0  0  0  0  0
    2.5950    1.8260    1.9620 H   0  0  0  0  0  0  0  0  0  0  0  0
   -0.0140    2.6670   -1.3950 H   0  0  0  0  0  0  0  0  0  0  0  0
    4.0690    3.0570    0.3810 H   0  0  0  0  0  0  0  0  0  0  0  0
    8.8230    7.6110    1.2050 H   0  0  0  0  0  0  0  0  0  0  0  0
    8.0020    9.9050    0.1820 H   0  0  0  0  0  0  0  0  0  0  0  0
    7.5830   13.5930   -1.1250 H   0  0  0  0  0  0  0  0  0  0  0  0
    5.2680   14.4850   -2.1700 H   0  0  0  0  0  0  0  0  0  0  0  0
  1 29  1  0  0  0  0
  1  2  2  0  0  0  0
  2 30  1  0  0  0  0
  3  1  1  0  0  0  0
  4  2  1  0  0  0  0
  4 31  1  0  0  0  0
  5  3  2  0  0  0  0
  5  6  1  0  0  0  0
  6  4  2  0  0  0  0
  7  8  2  0  0  0  0
  7  6  1  0  0  0  0
  8 33  1  0  0  0  0
  9  7  1  0  0  0  0
 10  8  1  0  0  0  0
 11  9  2  0  0  0  0
 12 13  1  0  0  0  0
 12  9  1  0  0  0  0
 13 10  2  0  0  0  0
 14 15  1  0  0  0  0
 14 11  1  0  0  0  0
 15 12  2  0  0  0  0
 16 13  1  1  0  0  0
 16 18  1  0  0  0  0
 17 19  2  0  0  0  0
 17 16  1  0  0  0  0
 18 20  1  0  0  0  0
 19 21  1  0  0  0  0
 21 18  2  0  0  0  0
 21 24  1  0  0  0  0
 22 25  2  0  0  0  0
 22 19  1  0  0  0  0
 23 20  1  0  0  0  0
 23 34  1  0  0  0  0
 24 23  2  0  0  0  0
 26 28  1  0  0  0  0
 26 22  1  0  0  0  0
 27 36  1  0  0  0  0
 27 25  1  0  0  0  0
 28 27  2  0  0  0  0
 32  5  1  0  0  0  0
 35 24  1  0  0  0  0
 37 28  1  0  0  0  0
M  END
$$$$
scan_sander_basal/min_pdbs/min_pdb_C271_180.pdb
 OpenBabel09051719273D

 37 42  0  0  1  0  0  0  0  0999 V2000
    0.1590   -0.0230    0.5580 C   0  0  0  0  0  0  0  0  0  0  0  0
    1.0530    0.3940    1.5570 C   0  0  0  0  0  0  0  0  0  0  0  0
   -0.1280    0.7290   -0.5210 N   0  0  0  0  0  0  0  0  0  0  0  0
    1.6730    1.6480    1.4330 C   0  0  0  0  0  0  0  0  0  0  0  0
    0.4660    1.9350   -0.6360 C   0  0  0  0  0  0  0  0  0  0  0  0
    1.3800    2.4610    0.3120 C   0  0  0  0  0  0  0  0  0  0  0  0
    2.0360    3.7950    0.1340 C   0  0  0  0  0  0  0  0  0  0  0  0
    3.4130    3.9650    0.3970 C   0  0  0  0  0  0  0  0  0  0  0  0
    1.3530    4.9550   -0.2950 C   0  0  0  0  0  0  0  0  0  0  0  0
    4.0630    5.1350    0.2540 N   0  0  0  0  0  0  0  0  0  0  0  0
    0.0340    4.9890   -0.5710 N   0  0  0  0  0  0  0  0  0  0  0  0
    2.0190    6.1670   -0.4410 C   0  0  0  0  0  0  0  0  0  0  0  0
    3.4100    6.2450   -0.1590 C   0  0  0  0  0  0  0  0  0  0  0  0
   -0.2740    6.5330   -1.0050 S   0  0  0  0  0  0  0  0  0  0  0  0
    1.2210    7.1810   -0.8510 N   0  0  0  0  0  0  0  0  0  0  0  0
    4.1930    7.5010   -0.2930 C   0  0  2  0  0  0  0  0  0  0  0  0
    3.5650    9.0810   -0.8150 B   0  0  0  0  0  0  0  0  0  0  0  0
    5.5480    7.6320   -0.0310 C   0  0  0  0  0  0  0  0  0  0  0  0
    5.1440    9.8530   -0.6630 C   0  0  0  0  0  0  0  0  0  0  0  0
    6.7150    6.4470    0.5110 S   0  0  0  0  0  0  0  0  0  0  0  0
    6.0540    8.9160   -0.2350 C   0  0  0  0  0  0  0  0  0  0  0  0
    5.3980   11.2440   -0.9410 C   0  0  0  0  0  0  0  0  0  0  0  0
    7.9450    7.7370    0.4640 C   0  0  0  0  0  0  0  0  0  0  0  0
    7.4500    8.9660    0.0560 C   0  0  0  0  0  0  0  0  0  0  0  0
    6.6130   11.7380   -0.7830 C   0  0  0  0  0  0  0  0  0  0  0  0
    4.1640   12.3570   -1.4870 S   0  0  0  0  0  0  0  0  0  0  0  0
    6.6280   13.0770   -1.1020 C   0  0  0  0  0  0  0  0  0  0  0  0
    5.4100   13.5810   -1.4990 C   0  0  0  0  0  0  0  0  0  0  0  0
   -0.3390   -0.9900    0.6210 H   0  0  0  0  0  0  0  0  0  0  0  0
    1.2590   -0.2440    2.4110 H   0  0  0  0  0  0  0  0  0  0  0  0
    2.3640    1.9920    2.1970 H   0  0  0  0  0  0  0  0  0  0  0  0
    0.2130    2.5020   -1.5310 H   0  0  0  0  0  0  0  0  0  0  0  0
    4.0200    3.1220    0.7260 H   0  0  0  0  0  0  0  0  0  0  0  0
    8.9620    7.4930    0.7440 H   0  0  0  0  0  0  0  0  0  0  0  0
    8.0640    9.8550   -0.0290 H   0  0  0  0  0  0  0  0  0  0  0  0
    7.5580   13.6260   -1.0220 H   0  0  0  0  0  0  0  0  0  0  0  0
    5.1680   14.5920   -1.7970 H   0  0  0  0  0  0  0  0  0  0  0  0
  1 29  1  0  0  0  0
  1  2  2  0  0  0  0
  2 30  1  0  0  0  0
  3  1  1  0  0  0  0
  4  2  1  0  0  0  0
  4 31  1  0  0  0  0
  5  3  2  0  0  0  0
  5  6  1  0  0  0  0
  6  4  2  0  0  0  0
  7  6  1  0  0  0  0
  7  8  2  0  0  0  0
  8 33  1  0  0  0  0
  9  7  1  0  0  0  0
 10  8  1  0  0  0  0
 11  9  2  0  0  0  0
 12  9  1  0  0  0  0
 12 13  1  0  0  0  0
 13 10  2  0  0  0  0
 14 15  1  0  0  0  0
 14 11  1  0  0  0  0
 15 12  2  0  0  0  0
 16 13  1  6  0  0  0
 16 18  1  0  0  0  0
 17 19  2  0  0  0  0
 17 16  1  0  0  0  0
 18 20  1  0  0  0  0
 19 21  1  0  0  0  0
 21 18  2  0  0  0  0
 21 24  1  0  0  0  0
 22 25  2  0  0  0  0
 22 19  1  0  0  0  0
 23 20  1  0  0  0  0
 23 34  1  0  0  0  0
 24 23  2  0  0  0  0
 26 22  1  0  0  0  0
 27 36  1  0  0  0  0
 27 25  1  0  0  0  0
 28 26  1  0  0  0  0
 28 27  2  0  0  0  0
 32  5  1  0  0  0  0
 35 24  1  0  0  0  0
 37 28  1  0  0  0  0
M  END
$$$$
scan_sander_basal/min_pdbs/min_pdb_C271_195.pdb
 OpenBabel09051719273D

 37 42  0  0  1  0  0  0  0  0999 V2000
    0.1690   -0.0120    0.6470 C   0  0  0  0  0  0  0  0  0  0  0  0
    0.9180    0.5050    1.7160 C   0  0  0  0  0  0  0  0  0  0  0  0
    0.0190    0.6440   -0.5190 N   0  0  0  0  0  0  0  0  0  0  0  0
    1.5350    1.7570    1.5700 C   0  0  0  0  0  0  0  0  0  0  0  0
    0.6100    1.8490   -0.6560 C   0  0  0  0  0  0  0  0  0  0  0  0
    1.3850    2.4700    0.3570 C   0  0  0  0  0  0  0  0  0  0  0  0
    2.0450    3.7980    0.1560 C   0  0  0  0  0  0  0  0  0  0  0  0
    3.3730    4.0190    0.5830 C   0  0  0  0  0  0  0  0  0  0  0  0
    1.4110    4.9050   -0.4550 C   0  0  0  0  0  0  0  0  0  0  0  0
    4.0260    5.1870    0.4300 N   0  0  0  0  0  0  0  0  0  0  0  0
    0.1420    4.8880   -0.9090 N   0  0  0  0  0  0  0  0  0  0  0  0
    2.0780    6.1140   -0.6110 C   0  0  0  0  0  0  0  0  0  0  0  0
    3.4170    6.2420   -0.1580 C   0  0  0  0  0  0  0  0  0  0  0  0
   -0.1150    6.3840   -1.5150 S   0  0  0  0  0  0  0  0  0  0  0  0
    1.3390    7.0740   -1.2150 N   0  0  0  0  0  0  0  0  0  0  0  0
    4.1880    7.5030   -0.2760 C   0  0  2  0  0  0  0  0  0  0  0  0
    3.5260    9.1100   -0.6520 B   0  0  0  0  0  0  0  0  0  0  0  0
    5.5610    7.6110   -0.1320 C   0  0  0  0  0  0  0  0  0  0  0  0
    5.1210    9.8670   -0.5900 C   0  0  0  0  0  0  0  0  0  0  0  0
    6.7580    6.3780    0.1860 S   0  0  0  0  0  0  0  0  0  0  0  0
    6.0570    8.9020   -0.3060 C   0  0  0  0  0  0  0  0  0  0  0  0
    5.3620   11.2720   -0.7980 C   0  0  0  0  0  0  0  0  0  0  0  0
    7.9940    7.6630    0.1120 C   0  0  0  0  0  0  0  0  0  0  0  0
    7.4770    8.9230   -0.1560 C   0  0  0  0  0  0  0  0  0  0  0  0
    6.5900   11.7500   -0.7170 C   0  0  0  0  0  0  0  0  0  0  0  0
    4.0950   12.4230   -1.1600 S   0  0  0  0  0  0  0  0  0  0  0  0
    6.5900   13.1070   -0.9480 C   0  0  0  0  0  0  0  0  0  0  0  0
    5.3470   13.6400   -1.2030 C   0  0  0  0  0  0  0  0  0  0  0  0
   -0.3240   -0.9810    0.7250 H   0  0  0  0  0  0  0  0  0  0  0  0
    1.0150   -0.0570    2.6400 H   0  0  0  0  0  0  0  0  0  0  0  0
    2.1150    2.1770    2.3870 H   0  0  0  0  0  0  0  0  0  0  0  0
    0.4720    2.3350   -1.6200 H   0  0  0  0  0  0  0  0  0  0  0  0
    3.9400    3.2190    1.0590 H   0  0  0  0  0  0  0  0  0  0  0  0
    9.0300    7.3940    0.2670 H   0  0  0  0  0  0  0  0  0  0  0  0
    8.0910    9.8100   -0.2450 H   0  0  0  0  0  0  0  0  0  0  0  0
    7.5290   13.6470   -0.9160 H   0  0  0  0  0  0  0  0  0  0  0  0
    5.0890   14.6690   -1.4120 H   0  0  0  0  0  0  0  0  0  0  0  0
  1 29  1  0  0  0  0
  1  2  2  0  0  0  0
  2 30  1  0  0  0  0
  3  1  1  0  0  0  0
  4  2  1  0  0  0  0
  4 31  1  0  0  0  0
  5  3  2  0  0  0  0
  5  6  1  0  0  0  0
  6  4  2  0  0  0  0
  7  6  1  0  0  0  0
  7  8  2  0  0  0  0
  8 33  1  0  0  0  0
  9  7  1  0  0  0  0
 10  8  1  0  0  0  0
 11  9  2  0  0  0  0
 12  9  1  0  0  0  0
 12 13  1  0  0  0  0
 13 10  2  0  0  0  0
 14 15  1  0  0  0  0
 14 11  1  0  0  0  0
 15 12  2  0  0  0  0
 16 13  1  6  0  0  0
 16 18  1  0  0  0  0
 17 19  2  0  0  0  0
 17 16  1  0  0  0  0
 18 20  1  0  0  0  0
 19 21  1  0  0  0  0
 21 24  1  0  0  0  0
 21 18  2  0  0  0  0
 22 25  2  0  0  0  0
 22 19  1  0  0  0  0
 23 20  1  0  0  0  0
 23 34  1  0  0  0  0
 24 23  2  0  0  0  0
 26 22  1  0  0  0  0
 27 36  1  0  0  0  0
 27 25  1  0  0  0  0
 28 26  1  0  0  0  0
 28 27  2  0  0  0  0
 32  5  1  0  0  0  0
 35 24  1  0  0  0  0
 37 28  1  0  0  0  0
M  END
$$$$
scan_sander_basal/min_pdbs/min_pdb_C271_210.pdb
 OpenBabel09051719273D

 37 42  0  0  1  0  0  0  0  0999 V2000
    0.1860    0.0020    0.7160 C   0  0  0  0  0  0  0  0  0  0  0  0
    0.7800    0.6140    1.8310 C   0  0  0  0  0  0  0  0  0  0  0  0
    0.1830    0.5660   -0.5070 N   0  0  0  0  0  0  0  0  0  0  0  0
    1.3960    1.8660    1.6720 C   0  0  0  0  0  0  0  0  0  0  0  0
    0.7720    1.7710   -0.6570 C   0  0  0  0  0  0  0  0  0  0  0  0
    1.3970    2.4830    0.3980 C   0  0  0  0  0  0  0  0  0  0  0  0
    2.0610    3.8070    0.1830 C   0  0  0  0  0  0  0  0  0  0  0  0
    3.3200    4.0890    0.7630 C   0  0  0  0  0  0  0  0  0  0  0  0
    1.4970    4.8500   -0.5890 C   0  0  0  0  0  0  0  0  0  0  0  0
    3.9740    5.2570    0.6080 N   0  0  0  0  0  0  0  0  0  0  0  0
    0.3010    4.7750   -1.2040 N   0  0  0  0  0  0  0  0  0  0  0  0
    2.1630    6.0580   -0.7480 C   0  0  0  0  0  0  0  0  0  0  0  0
    3.4270    6.2430   -0.1380 C   0  0  0  0  0  0  0  0  0  0  0  0
    0.1130    6.2180   -1.9500 S   0  0  0  0  0  0  0  0  0  0  0  0
    1.5060    6.9600   -1.5140 N   0  0  0  0  0  0  0  0  0  0  0  0
    4.1760    7.5090   -0.2470 C   0  0  2  0  0  0  0  0  0  0  0  0
    3.4850    9.1290   -0.4690 B   0  0  0  0  0  0  0  0  0  0  0  0
    5.5520    7.5980   -0.2280 C   0  0  0  0  0  0  0  0  0  0  0  0
    5.0900    9.8750   -0.5150 C   0  0  0  0  0  0  0  0  0  0  0  0
    6.7450    6.3300   -0.1090 S   0  0  0  0  0  0  0  0  0  0  0  0
    6.0420    8.8910   -0.3760 C   0  0  0  0  0  0  0  0  0  0  0  0
    5.3270   11.2880   -0.6650 C   0  0  0  0  0  0  0  0  0  0  0  0
    7.9880    7.6080   -0.2260 C   0  0  0  0  0  0  0  0  0  0  0  0
    7.4700    8.8890   -0.3670 C   0  0  0  0  0  0  0  0  0  0  0  0
    6.5630   11.7520   -0.6720 C   0  0  0  0  0  0  0  0  0  0  0  0
    4.0450   12.4660   -0.8400 S   0  0  0  0  0  0  0  0  0  0  0  0
    6.5570   13.1200   -0.8240 C   0  0  0  0  0  0  0  0  0  0  0  0
    5.3020   13.6750   -0.9300 C   0  0  0  0  0  0  0  0  0  0  0  0
   -0.3000   -0.9690    0.8030 H   0  0  0  0  0  0  0  0  0  0  0  0
    0.7620    0.1240    2.8000 H   0  0  0  0  0  0  0  0  0  0  0  0
    1.8570    2.3590    2.5230 H   0  0  0  0  0  0  0  0  0  0  0  0
    0.7560    2.1810   -1.6650 H   0  0  0  0  0  0  0  0  0  0  0  0
    3.8280    3.3400    1.3690 H   0  0  0  0  0  0  0  0  0  0  0  0
    9.0300    7.3190   -0.1910 H   0  0  0  0  0  0  0  0  0  0  0  0
    8.0860    9.7740   -0.4650 H   0  0  0  0  0  0  0  0  0  0  0  0
    7.5010   13.6510   -0.8490 H   0  0  0  0  0  0  0  0  0  0  0  0
    5.0380   14.7160   -1.0540 H   0  0  0  0  0  0  0  0  0  0  0  0
  1 29  1  0  0  0  0
  1  2  2  0  0  0  0
  2 30  1  0  0  0  0
  3  1  1  0  0  0  0
  4  2  1  0  0  0  0
  4 31  1  0  0  0  0
  5  3  2  0  0  0  0
  5  6  1  0  0  0  0
  6  4  2  0  0  0  0
  7  6  1  0  0  0  0
  7  8  2  0  0  0  0
  8 33  1  0  0  0  0
  9  7  1  0  0  0  0
 10  8  1  0  0  0  0
 11  9  2  0  0  0  0
 12  9  1  0  0  0  0
 12 13  1  0  0  0  0
 13 10  2  0  0  0  0
 14 15  1  0  0  0  0
 14 11  1  0  0  0  0
 15 12  2  0  0  0  0
 16 18  1  0  0  0  0
 16 13  1  6  0  0  0
 17 16  1  0  0  0  0
 18 20  1  0  0  0  0
 19 17  2  0  0  0  0
 19 21  1  0  0  0  0
 21 24  1  0  0  0  0
 21 18  2  0  0  0  0
 22 19  1  0  0  0  0
 23 34  1  0  0  0  0
 23 20  1  0  0  0  0
 24 23  2  0  0  0  0
 25 22  2  0  0  0  0
 26 22  1  0  0  0  0
 27 25  1  0  0  0  0
 28 26  1  0  0  0  0
 28 27  2  0  0  0  0
 32  5  1  0  0  0  0
 35 24  1  0  0  0  0
 36 27  1  0  0  0  0
 37 28  1  0  0  0  0
M  END
$$$$
scan_sander_basal/min_pdbs/min_pdb_C271_225.pdb
 OpenBabel09051719273D

 37 42  0  0  1  0  0  0  0  0999 V2000
    0.2120    0.0120    0.7720 C   0  0  0  0  0  0  0  0  0  0  0  0
    0.6480    0.7120    1.9080 C   0  0  0  0  0  0  0  0  0  0  0  0
    0.3570    0.4920   -0.4780 N   0  0  0  0  0  0  0  0  0  0  0  0
    1.2580    1.9660    1.7410 C   0  0  0  0  0  0  0  0  0  0  0  0
    0.9410    1.6980   -0.6360 C   0  0  0  0  0  0  0  0  0  0  0  0
    1.4140    2.4950    0.4380 C   0  0  0  0  0  0  0  0  0  0  0  0
    2.0780    3.8180    0.2170 C   0  0  0  0  0  0  0  0  0  0  0  0
    3.2480    4.1710    0.9310 C   0  0  0  0  0  0  0  0  0  0  0  0
    1.5980    4.7900   -0.6940 C   0  0  0  0  0  0  0  0  0  0  0  0
    3.8990    5.3420    0.7790 N   0  0  0  0  0  0  0  0  0  0  0  0
    0.4910    4.6500   -1.4480 N   0  0  0  0  0  0  0  0  0  0  0  0
    2.2600    5.9990   -0.8520 C   0  0  0  0  0  0  0  0  0  0  0  0
    3.4290    6.2510   -0.1040 C   0  0  0  0  0  0  0  0  0  0  0  0
    0.3810    6.0400   -2.3060 S   0  0  0  0  0  0  0  0  0  0  0  0
    1.6950    6.8410   -1.7480 N   0  0  0  0  0  0  0  0  0  0  0  0
    4.1570    7.5200   -0.2120 C   0  0  0  0  0  0  0  0  0  0  0  0
    3.4560    9.1460   -0.2730 B   0  0  0  0  0  0  0  0  0  0  0  0
    5.5240    7.5940   -0.3240 C   0  0  0  0  0  0  0  0  0  0  0  0
    5.0610    9.8820   -0.4420 C   0  0  2  0  0  0  0  0  0  0  0  0
    6.6900    6.3020   -0.3770 S   0  0  0  0  0  0  0  0  0  0  0  0
    6.0130    8.8870   -0.4510 C   0  0  0  0  0  0  0  0  0  0  0  0
    5.3010   11.2990   -0.5420 C   0  0  0  0  0  0  0  0  0  0  0  0
    7.9380    7.5700   -0.5530 C   0  0  0  0  0  0  0  0  0  0  0  0
    7.4340    8.8650   -0.5790 C   0  0  0  0  0  0  0  0  0  0  0  0
    6.5370   11.7510   -0.6500 C   0  0  0  0  0  0  0  0  0  0  0  0
    4.0250   12.4960   -0.5260 S   0  0  0  0  0  0  0  0  0  0  0  0
    6.5350   13.1250   -0.7300 C   0  0  0  0  0  0  0  0  0  0  0  0
    5.2850   13.6970   -0.6800 C   0  0  0  0  0  0  0  0  0  0  0  0
   -0.2650   -0.9630    0.8630 H   0  0  0  0  0  0  0  0  0  0  0  0
    0.5130    0.2880    2.8990 H   0  0  0  0  0  0  0  0  0  0  0  0
    1.5980    2.5260    2.6070 H   0  0  0  0  0  0  0  0  0  0  0  0
    1.0480    2.0400   -1.6640 H   0  0  0  0  0  0  0  0  0  0  0  0
    3.6850    3.4770    1.6490 H   0  0  0  0  0  0  0  0  0  0  0  0
    8.9730    7.2660   -0.6310 H   0  0  0  0  0  0  0  0  0  0  0  0
    8.0530    9.7470   -0.6910 H   0  0  0  0  0  0  0  0  0  0  0  0
    7.4800   13.6480   -0.8230 H   0  0  0  0  0  0  0  0  0  0  0  0
    5.0240   14.7450   -0.7240 H   0  0  0  0  0  0  0  0  0  0  0  0
  1 29  1  0  0  0  0
  1  2  2  0  0  0  0
  2 30  1  0  0  0  0
  3  1  1  0  0  0  0
  4  2  1  0  0  0  0
  4 31  1  0  0  0  0
  5  3  2  0  0  0  0
  5  6  1  0  0  0  0
  6  4  2  0  0  0  0
  7  6  1  0  0  0  0
  7  8  2  0  0  0  0
  8 33  1  0  0  0  0
  9  7  1  0  0  0  0
 10  8  1  0  0  0  0
 11  9  2  0  0  0  0
 12  9  1  0  0  0  0
 12 13  1  0  0  0  0
 13 10  2  0  0  0  0
 14 15  1  0  0  0  0
 14 11  1  0  0  0  0
 15 12  2  0  0  0  0
 16 13  1  0  0  0  0
 17 16  2  0  0  0  0
 18 16  1  0  0  0  0
 19 22  1  1  0  0  0
 19 17  1  0  0  0  0
 20 18  1  0  0  0  0
 21 19  1  0  0  0  0
 21 18  2  0  0  0  0
 22 26  1  0  0  0  0
 23 20  1  0  0  0  0
 24 23  2  0  0  0  0
 24 21  1  0  0  0  0
 25 22  2  0  0  0  0
 27 28  2  0  0  0  0
 27 25  1  0  0  0  0
 28 26  1  0  0  0  0
 32  5  1  0  0  0  0
 34 23  1  0  0  0  0
 35 24  1  0  0  0  0
 36 27  1  0  0  0  0
 37 28  1  0  0  0  0
M  END
$$$$
scan_sander_basal/min_pdbs/min_pdb_C271_240.pdb
 OpenBabel09051719273D

 37 42  0  0  1  0  0  0  0  0999 V2000
    0.2440    0.0160    0.8340 C   0  0  0  0  0  0  0  0  0  0  0  0
    0.5210    0.8020    1.9640 C   0  0  0  0  0  0  0  0  0  0  0  0
    0.5350    0.4150   -0.4180 N   0  0  0  0  0  0  0  0  0  0  0  0
    1.1220    2.0580    1.7870 C   0  0  0  0  0  0  0  0  0  0  0  0
    1.1100    1.6240   -0.5860 C   0  0  0  0  0  0  0  0  0  0  0  0
    1.4290    2.5040    0.4790 C   0  0  0  0  0  0  0  0  0  0  0  0
    2.0900    3.8270    0.2500 C   0  0  0  0  0  0  0  0  0  0  0  0
    3.1550    4.2590    1.0770 C   0  0  0  0  0  0  0  0  0  0  0  0
    1.7080    4.7220   -0.7790 C   0  0  0  0  0  0  0  0  0  0  0  0
    3.7980    5.4360    0.9260 N   0  0  0  0  0  0  0  0  0  0  0  0
    0.7050    4.5040   -1.6530 N   0  0  0  0  0  0  0  0  0  0  0  0
    2.3610    5.9330   -0.9380 C   0  0  0  0  0  0  0  0  0  0  0  0
    3.4200    6.2650   -0.0710 C   0  0  0  0  0  0  0  0  0  0  0  0
    0.6770    5.8340   -2.6070 S   0  0  0  0  0  0  0  0  0  0  0  0
    1.8970    6.7060   -1.9470 N   0  0  0  0  0  0  0  0  0  0  0  0
    4.1320    7.5350   -0.1840 C   0  0  0  0  0  0  0  0  0  0  0  0
    3.4470    9.1630   -0.0800 B   0  0  0  0  0  0  0  0  0  0  0  0
    5.4790    7.6000   -0.4300 C   0  0  0  0  0  0  0  0  0  0  0  0
    5.0390    9.8930   -0.3740 C   0  0  2  0  0  0  0  0  0  0  0  0
    6.6050    6.2930   -0.6450 S   0  0  0  0  0  0  0  0  0  0  0  0
    5.9720    8.8910   -0.5330 C   0  0  0  0  0  0  0  0  0  0  0  0
    5.2900   11.3100   -0.4240 C   0  0  0  0  0  0  0  0  0  0  0  0
    7.8530    7.5540   -0.8810 C   0  0  0  0  0  0  0  0  0  0  0  0
    7.3730    8.8570   -0.7970 C   0  0  0  0  0  0  0  0  0  0  0  0
    6.5160   11.7530   -0.6340 C   0  0  0  0  0  0  0  0  0  0  0  0
    4.0420   12.5180   -0.2160 S   0  0  0  0  0  0  0  0  0  0  0  0
    6.5290   13.1300   -0.6420 C   0  0  0  0  0  0  0  0  0  0  0  0
    5.2990   13.7110   -0.4350 C   0  0  0  0  0  0  0  0  0  0  0  0
   -0.2210   -0.9650    0.9340 H   0  0  0  0  0  0  0  0  0  0  0  0
    0.2710    0.4410    2.9570 H   0  0  0  0  0  0  0  0  0  0  0  0
    1.3400    2.6840    2.6480 H   0  0  0  0  0  0  0  0  0  0  0  0
    1.3380    1.8990   -1.6150 H   0  0  0  0  0  0  0  0  0  0  0  0
    3.5120    3.6280    1.8910 H   0  0  0  0  0  0  0  0  0  0  0  0
    8.8710    7.2400   -1.0720 H   0  0  0  0  0  0  0  0  0  0  0  0
    7.9960    9.7350   -0.9210 H   0  0  0  0  0  0  0  0  0  0  0  0
    7.4680   13.6460   -0.8040 H   0  0  0  0  0  0  0  0  0  0  0  0
    5.0530   14.7640   -0.3970 H   0  0  0  0  0  0  0  0  0  0  0  0
  1 29  1  0  0  0  0
  1  2  2  0  0  0  0
  2 30  1  0  0  0  0
  3  1  1  0  0  0  0
  4  2  1  0  0  0  0
  4 31  1  0  0  0  0
  5  3  2  0  0  0  0
  5  6  1  0  0  0  0
  6  4  2  0  0  0  0
  7  6  1  0  0  0  0
  7  8  2  0  0  0  0
  8 33  1  0  0  0  0
  9  7  1  0  0  0  0
 10  8  1  0  0  0  0
 11  9  2  0  0  0  0
 12  9  1  0  0  0  0
 12 13  1  0  0  0  0
 13 10  2  0  0  0  0
 14 15  1  0  0  0  0
 14 11  1  0  0  0  0
 15 12  2  0  0  0  0
 16 17  2  0  0  0  0
 16 13  1  0  0  0  0
 18 16  1  0  0  0  0
 19 22  1  1  0  0  0
 19 17  1  0  0  0  0
 20 18  1  0  0  0  0
 21 18  2  0  0  0  0
 21 19  1  0  0  0  0
 22 26  1  0  0  0  0
 23 24  2  0  0  0  0
 23 20  1  0  0  0  0
 24 21  1  0  0  0  0
 25 22  2  0  0  0  0
 27 25  1  0  0  0  0
 27 28  2  0  0  0  0
 28 37  1  0  0  0  0
 28 26  1  0  0  0  0
 32  5  1  0  0  0  0
 34 23  1  0  0  0  0
 35 24  1  0  0  0  0
 36 27  1  0  0  0  0
M  END
$$$$
scan_sander_basal/min_pdbs/min_pdb_C271_255.pdb
 OpenBabel09051719273D

 37 42  0  0  1  0  0  0  0  0999 V2000
    0.2510    0.0310    0.9190 C   0  0  0  0  0  0  0  0  0  0  0  0
    0.3790    0.8980    2.0160 C   0  0  0  0  0  0  0  0  0  0  0  0
    0.6810    0.3520   -0.3150 N   0  0  0  0  0  0  0  0  0  0  0  0
    0.9770    2.1540    1.8230 C   0  0  0  0  0  0  0  0  0  0  0  0
    1.2510    1.5610   -0.5000 C   0  0  0  0  0  0  0  0  0  0  0  0
    1.4280    2.5180    0.5320 C   0  0  0  0  0  0  0  0  0  0  0  0
    2.0900    3.8380    0.2890 C   0  0  0  0  0  0  0  0  0  0  0  0
    3.0430    4.3520    1.2030 C   0  0  0  0  0  0  0  0  0  0  0  0
    1.8170    4.6510   -0.8380 C   0  0  0  0  0  0  0  0  0  0  0  0
    3.6800    5.5310    1.0460 N   0  0  0  0  0  0  0  0  0  0  0  0
    0.9280    4.3520   -1.8060 N   0  0  0  0  0  0  0  0  0  0  0  0
    2.4640    5.8650   -1.0040 C   0  0  0  0  0  0  0  0  0  0  0  0
    3.4060    6.2790   -0.0430 C   0  0  0  0  0  0  0  0  0  0  0  0
    0.9930    5.6150   -2.8460 S   0  0  0  0  0  0  0  0  0  0  0  0
    2.1120    6.5570   -2.1100 N   0  0  0  0  0  0  0  0  0  0  0  0
    4.1130    7.5480   -0.1640 C   0  0  0  0  0  0  0  0  0  0  0  0
    3.4740    9.1730    0.1090 B   0  0  0  0  0  0  0  0  0  0  0  0
    5.4250    7.6080   -0.5470 C   0  0  0  0  0  0  0  0  0  0  0  0
    5.0400    9.8980   -0.3150 C   0  0  2  0  0  0  0  0  0  0  0  0
    6.4930    6.2950   -0.9410 S   0  0  0  0  0  0  0  0  0  0  0  0
    5.9310    8.8950   -0.6290 C   0  0  0  0  0  0  0  0  0  0  0  0
    5.3130   11.3120   -0.3140 C   0  0  0  0  0  0  0  0  0  0  0  0
    7.7370    7.5480   -1.2400 C   0  0  0  0  0  0  0  0  0  0  0  0
    7.2970    8.8520   -1.0380 C   0  0  0  0  0  0  0  0  0  0  0  0
    6.5180   11.7480   -0.6300 C   0  0  0  0  0  0  0  0  0  0  0  0
    4.1200   12.5240    0.0950 S   0  0  0  0  0  0  0  0  0  0  0  0
    6.5590   13.1230   -0.5640 C   0  0  0  0  0  0  0  0  0  0  0  0
    5.3710   13.7090   -0.1930 C   0  0  0  0  0  0  0  0  0  0  0  0
   -0.2070   -0.9510    1.0330 H   0  0  0  0  0  0  0  0  0  0  0  0
    0.0200    0.6000    2.9960 H   0  0  0  0  0  0  0  0  0  0  0  0
    1.0820    2.8420    2.6570 H   0  0  0  0  0  0  0  0  0  0  0  0
    1.5950    1.7720   -1.5110 H   0  0  0  0  0  0  0  0  0  0  0  0
    3.3130    3.7850    2.0940 H   0  0  0  0  0  0  0  0  0  0  0  0
    8.7230    7.2280   -1.5510 H   0  0  0  0  0  0  0  0  0  0  0  0
    7.9230    9.7260   -1.1770 H   0  0  0  0  0  0  0  0  0  0  0  0
    7.4850   13.6330   -0.7970 H   0  0  0  0  0  0  0  0  0  0  0  0
    5.1520   14.7610   -0.0710 H   0  0  0  0  0  0  0  0  0  0  0  0
  1 29  1  0  0  0  0
  1  2  2  0  0  0  0
  2 30  1  0  0  0  0
  3  1  1  0  0  0  0
  4  2  1  0  0  0  0
  4 31  1  0  0  0  0
  5  3  2  0  0  0  0
  5  6  1  0  0  0  0
  6  4  2  0  0  0  0
  7  6  1  0  0  0  0
  7  8  2  0  0  0  0
  8 33  1  0  0  0  0
  9  7  1  0  0  0  0
 10  8  1  0  0  0  0
 11  9  2  0  0  0  0
 12  9  1  0  0  0  0
 12 13  1  0  0  0  0
 13 10  2  0  0  0  0
 14 15  1  0  0  0  0
 14 11  1  0  0  0  0
 15 12  2  0  0  0  0
 16 13  1  0  0  0  0
 16 17  2  0  0  0  0
 18 16  1  0  0  0  0
 19 22  1  1  0  0  0
 19 17  1  0  0  0  0
 20 18  1  0  0  0  0
 21 18  2  0  0  0  0
 21 19  1  0  0  0  0
 22 26  1  0  0  0  0
 23 24  2  0  0  0  0
 23 20  1  0  0  0  0
 24 21  1  0  0  0  0
 25 27  1  0  0  0  0
 25 22  2  0  0  0  0
 27 28  2  0  0  0  0
 28 37  1  0  0  0  0
 28 26  1  0  0  0  0
 32  5  1  0  0  0  0
 34 23  1  0  0  0  0
 35 24  1  0  0  0  0
 36 27  1  0  0  0  0
M  END
$$$$
scan_sander_basal/min_pdbs/min_pdb_C271_270.pdb
 OpenBabel09051719273D

 37 42  0  0  1  0  0  0  0  0999 V2000
   -0.2150    0.2430    0.4890 C   0  0  0  0  0  0  0  0  0  0  0  0
    0.0660    0.7150   -0.8030 C   0  0  0  0  0  0  0  0  0  0  0  0
    0.2350    0.8550    1.6000 N   0  0  0  0  0  0  0  0  0  0  0  0
    0.8520    1.8700   -0.9480 C   0  0  0  0  0  0  0  0  0  0  0  0
    0.9930    1.9630    1.4580 C   0  0  0  0  0  0  0  0  0  0  0  0
    1.3450    2.5260    0.2050 C   0  0  0  0  0  0  0  0  0  0  0  0
    2.1670    3.7710    0.0940 C   0  0  0  0  0  0  0  0  0  0  0  0
    1.8170    4.7920   -0.8250 C   0  0  0  0  0  0  0  0  0  0  0  0
    3.3250    4.0130    0.8720 C   0  0  0  0  0  0  0  0  0  0  0  0
    2.5100    5.9400   -0.9770 N   0  0  0  0  0  0  0  0  0  0  0  0
    3.8330    3.1590    1.7830 N   0  0  0  0  0  0  0  0  0  0  0  0
    4.0430    5.1870    0.7200 C   0  0  0  0  0  0  0  0  0  0  0  0
    3.6050    6.1440   -0.2160 C   0  0  0  0  0  0  0  0  0  0  0  0
    5.1610    3.9120    2.3760 S   0  0  0  0  0  0  0  0  0  0  0  0
    5.1340    5.3010    1.5100 N   0  0  0  0  0  0  0  0  0  0  0  0
    4.3180    7.3980   -0.4200 C   0  0  0  0  0  0  0  0  0  0  0  0
    5.6400    7.7250   -1.5460 B   0  0  0  0  0  0  0  0  0  0  0  0
    4.0150    8.5190    0.3030 C   0  0  0  0  0  0  0  0  0  0  0  0
    5.7440    9.4090   -0.9860 C   0  0  2  0  0  0  0  0  0  0  0  0
    2.8040    8.7110    1.5320 S   0  0  0  0  0  0  0  0  0  0  0  0
    4.7960    9.6190   -0.0090 C   0  0  0  0  0  0  0  0  0  0  0  0
    6.6740   10.3840   -1.4970 C   0  0  0  0  0  0  0  0  0  0  0  0
    3.3660   10.4070    1.6590 C   0  0  0  0  0  0  0  0  0  0  0  0
    4.4080   10.7310    0.7960 C   0  0  0  0  0  0  0  0  0  0  0  0
    6.6600   11.6150   -1.0230 C   0  0  0  0  0  0  0  0  0  0  0  0
    7.8530   10.0330   -2.7410 S   0  0  0  0  0  0  0  0  0  0  0  0
    7.6230   12.3760   -1.6470 C   0  0  0  0  0  0  0  0  0  0  0  0
    8.3570   11.6990   -2.5930 C   0  0  0  0  0  0  0  0  0  0  0  0
   -0.8220   -0.6490    0.6390 H   0  0  0  0  0  0  0  0  0  0  0  0
   -0.3180    0.1930   -1.6740 H   0  0  0  0  0  0  0  0  0  0  0  0
    1.0850    2.2490   -1.9390 H   0  0  0  0  0  0  0  0  0  0  0  0
    1.3240    2.4300    2.3850 H   0  0  0  0  0  0  0  0  0  0  0  0
    0.9370    4.6850   -1.4580 H   0  0  0  0  0  0  0  0  0  0  0  0
    2.8800   11.0560    2.3750 H   0  0  0  0  0  0  0  0  0  0  0  0
    4.8640   11.7130    0.7470 H   0  0  0  0  0  0  0  0  0  0  0  0
    7.7360   13.4160   -1.3650 H   0  0  0  0  0  0  0  0  0  0  0  0
    9.1610   12.0730   -3.2120 H   0  0  0  0  0  0  0  0  0  0  0  0
  1 29  1  0  0  0  0
  1  3  2  0  0  0  0
  2  1  1  0  0  0  0
  4  2  2  0  0  0  0
  4  6  1  0  0  0  0
  5  3  1  0  0  0  0
  5 32  1  0  0  0  0
  6  5  2  0  0  0  0
  7  6  1  0  0  0  0
  7  9  1  0  0  0  0
  8  7  2  0  0  0  0
  9 11  2  0  0  0  0
 10  8  1  0  0  0  0
 10 13  2  0  0  0  0
 11 14  1  0  0  0  0
 12  9  1  0  0  0  0
 12 15  2  0  0  0  0
 13 12  1  0  0  0  0
 15 14  1  0  0  0  0
 16 13  1  0  0  0  0
 16 18  1  0  0  0  0
 17 19  1  0  0  0  0
 17 16  2  0  0  0  0
 18 20  1  0  0  0  0
 19 22  1  6  0  0  0
 19 21  1  0  0  0  0
 20 23  1  0  0  0  0
 21 18  2  0  0  0  0
 21 24  1  0  0  0  0
 22 25  2  0  0  0  0
 23 34  1  0  0  0  0
 24 23  2  0  0  0  0
 26 28  1  0  0  0  0
 26 22  1  0  0  0  0
 27 36  1  0  0  0  0
 27 25  1  0  0  0  0
 28 27  2  0  0  0  0
 30  2  1  0  0  0  0
 31  4  1  0  0  0  0
 33  8  1  0  0  0  0
 35 24  1  0  0  0  0
 37 28  1  0  0  0  0
M  END
$$$$
scan_sander_basal/min_pdbs/min_pdb_C271_285.pdb
 OpenBabel09051719273D

 37 42  0  0  1  0  0  0  0  0999 V2000
   -0.2140    0.2320    0.4200 C   0  0  0  0  0  0  0  0  0  0  0  0
    0.2250    0.6170   -0.8560 C   0  0  0  0  0  0  0  0  0  0  0  0
    0.0830    0.9300    1.5330 N   0  0  0  0  0  0  0  0  0  0  0  0
    1.0100    1.7750   -0.9840 C   0  0  0  0  0  0  0  0  0  0  0  0
    0.8400    2.0400    1.4080 C   0  0  0  0  0  0  0  0  0  0  0  0
    1.3430    2.5200    0.1720 C   0  0  0  0  0  0  0  0  0  0  0  0
    2.1580    3.7710    0.0760 C   0  0  0  0  0  0  0  0  0  0  0  0
    1.9170    4.7170   -0.9510 C   0  0  0  0  0  0  0  0  0  0  0  0
    3.2040    4.0910    0.9750 C   0  0  0  0  0  0  0  0  0  0  0  0
    2.6100    5.8660   -1.0970 N   0  0  0  0  0  0  0  0  0  0  0  0
    3.6000    3.3150    2.0020 N   0  0  0  0  0  0  0  0  0  0  0  0
    3.9220    5.2680    0.8310 C   0  0  0  0  0  0  0  0  0  0  0  0
    3.5970    6.1470   -0.2210 C   0  0  0  0  0  0  0  0  0  0  0  0
    4.8340    4.1330    2.7030 S   0  0  0  0  0  0  0  0  0  0  0  0
    4.9000    5.4580    1.7430 N   0  0  0  0  0  0  0  0  0  0  0  0
    4.3090    7.4010   -0.4270 C   0  0  0  0  0  0  0  0  0  0  0  0
    5.5170    7.7700   -1.6640 B   0  0  0  0  0  0  0  0  0  0  0  0
    4.0990    8.4890    0.3770 C   0  0  0  0  0  0  0  0  0  0  0  0
    5.7070    9.4220   -1.0350 C   0  0  2  0  0  0  0  0  0  0  0  0
    3.0150    8.6380    1.7250 S   0  0  0  0  0  0  0  0  0  0  0  0
    4.8650    9.5940    0.0420 C   0  0  0  0  0  0  0  0  0  0  0  0
    6.5990   10.4080   -1.5870 C   0  0  0  0  0  0  0  0  0  0  0  0
    3.6180   10.3170    1.8780 C   0  0  0  0  0  0  0  0  0  0  0  0
    4.5770   10.6700    0.9330 C   0  0  0  0  0  0  0  0  0  0  0  0
    6.6550   11.6140   -1.0540 C   0  0  0  0  0  0  0  0  0  0  0  0
    7.6420   10.1060   -2.9590 S   0  0  0  0  0  0  0  0  0  0  0  0
    7.5650   12.3930   -1.7330 C   0  0  0  0  0  0  0  0  0  0  0  0
    8.1890   11.7550   -2.7800 C   0  0  0  0  0  0  0  0  0  0  0  0
   -0.8240   -0.6610    0.5570 H   0  0  0  0  0  0  0  0  0  0  0  0
   -0.0380    0.0270   -1.7290 H   0  0  0  0  0  0  0  0  0  0  0  0
    1.3640    2.0880   -1.9620 H   0  0  0  0  0  0  0  0  0  0  0  0
    1.0440    2.5780    2.3320 H   0  0  0  0  0  0  0  0  0  0  0  0
    1.1260    4.5480   -1.6810 H   0  0  0  0  0  0  0  0  0  0  0  0
    3.2160   10.9370    2.6680 H   0  0  0  0  0  0  0  0  0  0  0  0
    5.0430   11.6470    0.8860 H   0  0  0  0  0  0  0  0  0  0  0  0
    7.7240   13.4160   -1.4130 H   0  0  0  0  0  0  0  0  0  0  0  0
    8.9340   12.1500   -3.4570 H   0  0  0  0  0  0  0  0  0  0  0  0
  1 29  1  0  0  0  0
  1  3  2  0  0  0  0
  2  1  1  0  0  0  0
  4  2  2  0  0  0  0
  4  6  1  0  0  0  0
  5  3  1  0  0  0  0
  5 32  1  0  0  0  0
  6  5  2  0  0  0  0
  7  6  1  0  0  0  0
  7  9  1  0  0  0  0
  8  7  2  0  0  0  0
  9 11  2  0  0  0  0
 10  8  1  0  0  0  0
 10 13  2  0  0  0  0
 11 14  1  0  0  0  0
 12  9  1  0  0  0  0
 12 15  2  0  0  0  0
 13 12  1  0  0  0  0
 15 14  1  0  0  0  0
 16 13  1  0  0  0  0
 16 18  1  0  0  0  0
 17 19  1  0  0  0  0
 17 16  2  0  0  0  0
 18 20  1  0  0  0  0
 19 22  1  6  0  0  0
 19 21  1  0  0  0  0
 20 23  1  0  0  0  0
 21 18  2  0  0  0  0
 21 24  1  0  0  0  0
 22 25  2  0  0  0  0
 23 34  1  0  0  0  0
 24 23  2  0  0  0  0
 26 28  1  0  0  0  0
 26 22  1  0  0  0  0
 27 36  1  0  0  0  0
 27 25  1  0  0  0  0
 28 27  2  0  0  0  0
 30  2  1  0  0  0  0
 31  4  1  0  0  0  0
 33  8  1  0  0  0  0
 35 24  1  0  0  0  0
 37 28  1  0  0  0  0
M  END
$$$$
scan_sander_basal/min_pdbs/min_pdb_C271_300.pdb
 OpenBabel09051719273D

 37 42  0  0  1  0  0  0  0  0999 V2000
   -0.2180    0.2190    0.3270 C   0  0  0  0  0  0  0  0  0  0  0  0
    0.3790    0.5320   -0.9040 C   0  0  0  0  0  0  0  0  0  0  0  0
   -0.0720    0.9880    1.4220 N   0  0  0  0  0  0  0  0  0  0  0  0
    1.1640    1.6920   -1.0030 C   0  0  0  0  0  0  0  0  0  0  0  0
    0.6860    2.1010    1.3260 C   0  0  0  0  0  0  0  0  0  0  0  0
    1.3400    2.5120    0.1370 C   0  0  0  0  0  0  0  0  0  0  0  0
    2.1510    3.7680    0.0680 C   0  0  0  0  0  0  0  0  0  0  0  0
    2.0370    4.6450   -1.0380 C   0  0  0  0  0  0  0  0  0  0  0  0
    3.0690    4.1590    1.0720 C   0  0  0  0  0  0  0  0  0  0  0  0
    2.7330    5.7940   -1.1650 N   0  0  0  0  0  0  0  0  0  0  0  0
    3.3410    3.4450    2.1820 N   0  0  0  0  0  0  0  0  0  0  0  0
    3.7880    5.3380    0.9500 C   0  0  0  0  0  0  0  0  0  0  0  0
    3.5930    6.1490   -0.1880 C   0  0  0  0  0  0  0  0  0  0  0  0
    4.4780    4.3140    2.9790 S   0  0  0  0  0  0  0  0  0  0  0  0
    4.6530    5.5840    1.9610 N   0  0  0  0  0  0  0  0  0  0  0  0
    4.2990    7.4110   -0.3950 C   0  0  0  0  0  0  0  0  0  0  0  0
    5.3780    7.8180   -1.7360 B   0  0  0  0  0  0  0  0  0  0  0  0
    4.2000    8.4670    0.4740 C   0  0  0  0  0  0  0  0  0  0  0  0
    5.6680    9.4360   -1.0620 C   0  0  2  0  0  0  0  0  0  0  0  0
    3.2330    8.6020    1.9130 S   0  0  0  0  0  0  0  0  0  0  0  0
    4.9450    9.5750    0.1020 C   0  0  0  0  0  0  0  0  0  0  0  0
    6.5200   10.4290   -1.6650 C   0  0  0  0  0  0  0  0  0  0  0  0
    3.8870   10.2610    2.0670 C   0  0  0  0  0  0  0  0  0  0  0  0
    4.7610   10.6260    1.0490 C   0  0  0  0  0  0  0  0  0  0  0  0
    6.6580   11.6100   -1.0910 C   0  0  0  0  0  0  0  0  0  0  0  0
    7.4070   10.1660   -3.1490 S   0  0  0  0  0  0  0  0  0  0  0  0
    7.5100   12.4000   -1.8300 C   0  0  0  0  0  0  0  0  0  0  0  0
    8.0080   11.7960   -2.9620 C   0  0  0  0  0  0  0  0  0  0  0  0
   -0.8340   -0.6730    0.4400 H   0  0  0  0  0  0  0  0  0  0  0  0
    0.2350   -0.1150   -1.7640 H   0  0  0  0  0  0  0  0  0  0  0  0
    1.6390    1.9510   -1.9450 H   0  0  0  0  0  0  0  0  0  0  0  0
    0.7650    2.6970    2.2340 H   0  0  0  0  0  0  0  0  0  0  0  0
    1.3490    4.4180   -1.8530 H   0  0  0  0  0  0  0  0  0  0  0  0
    3.5710   10.8620    2.9090 H   0  0  0  0  0  0  0  0  0  0  0  0
    5.2370   11.5980    0.9870 H   0  0  0  0  0  0  0  0  0  0  0  0
    7.7260   13.4050   -1.4870 H   0  0  0  0  0  0  0  0  0  0  0  0
    8.6880   12.2050   -3.6960 H   0  0  0  0  0  0  0  0  0  0  0  0
  1 29  1  0  0  0  0
  1  3  2  0  0  0  0
  2  1  1  0  0  0  0
  4  2  2  0  0  0  0
  4  6  1  0  0  0  0
  5  3  1  0  0  0  0
  5 32  1  0  0  0  0
  6  5  2  0  0  0  0
  7  6  1  0  0  0  0
  7  9  1  0  0  0  0
  8  7  2  0  0  0  0
  9 11  2  0  0  0  0
 10  8  1  0  0  0  0
 10 13  2  0  0  0  0
 11 14  1  0  0  0  0
 12  9  1  0  0  0  0
 12 15  2  0  0  0  0
 13 12  1  0  0  0  0
 15 14  1  0  0  0  0
 16 13  1  0  0  0  0
 16 18  1  0  0  0  0
 17 19  1  0  0  0  0
 17 16  2  0  0  0  0
 18 20  1  0  0  0  0
 19 22  1  6  0  0  0
 19 21  1  0  0  0  0
 20 23  1  0  0  0  0
 21 18  2  0  0  0  0
 21 24  1  0  0  0  0
 22 25  2  0  0  0  0
 23 34  1  0  0  0  0
 24 23  2  0  0  0  0
 26 28  1  0  0  0  0
 26 22  1  0  0  0  0
 27 36  1  0  0  0  0
 27 25  1  0  0  0  0
 28 27  2  0  0  0  0
 30  2  1  0  0  0  0
 31  4  1  0  0  0  0
 33  8  1  0  0  0  0
 35 24  1  0  0  0  0
 37 28  1  0  0  0  0
M  END
$$$$
scan_sander_basal/min_pdbs/min_pdb_C271_315.pdb
 OpenBabel09051719273D

 37 42  0  0  1  0  0  0  0  0999 V2000
   -0.2130    0.1990    0.1990 C   0  0  0  0  0  0  0  0  0  0  0  0
    0.5400    0.4590   -0.9580 C   0  0  0  0  0  0  0  0  0  0  0  0
   -0.2150    1.0230    1.2640 N   0  0  0  0  0  0  0  0  0  0  0  0
    1.3260    1.6210   -1.0100 C   0  0  0  0  0  0  0  0  0  0  0  0
    0.5440    2.1370    1.2130 C   0  0  0  0  0  0  0  0  0  0  0  0
    1.3470    2.4970    0.1010 C   0  0  0  0  0  0  0  0  0  0  0  0
    2.1550    3.7560    0.0760 C   0  0  0  0  0  0  0  0  0  0  0  0
    2.1840    4.5770   -1.0760 C   0  0  0  0  0  0  0  0  0  0  0  0
    2.9310    4.2060    1.1710 C   0  0  0  0  0  0  0  0  0  0  0  0
    2.8830    5.7270   -1.1630 N   0  0  0  0  0  0  0  0  0  0  0  0
    3.0720    3.5330    2.3300 N   0  0  0  0  0  0  0  0  0  0  0  0
    3.6500    5.3910    1.0920 C   0  0  0  0  0  0  0  0  0  0  0  0
    3.5990    6.1520   -0.0990 C   0  0  0  0  0  0  0  0  0  0  0  0
    4.1100    4.4290    3.2210 S   0  0  0  0  0  0  0  0  0  0  0  0
    4.4030    5.6600    2.1830 N   0  0  0  0  0  0  0  0  0  0  0  0
    4.2890    7.4290   -0.3060 C   0  0  0  0  0  0  0  0  0  0  0  0
    5.2130    7.8690   -1.7500 B   0  0  0  0  0  0  0  0  0  0  0  0
    4.3120    8.4620    0.6020 C   0  0  0  0  0  0  0  0  0  0  0  0
    5.6160    9.4550   -1.0680 C   0  0  2  0  0  0  0  0  0  0  0  0
    3.4500    8.6260    2.1070 S   0  0  0  0  0  0  0  0  0  0  0  0
    5.0280    9.5730    0.1720 C   0  0  0  0  0  0  0  0  0  0  0  0
    6.4230   10.4460   -1.7330 C   0  0  0  0  0  0  0  0  0  0  0  0
    4.1610   10.2610    2.2270 C   0  0  0  0  0  0  0  0  0  0  0  0
    4.9490   10.6180    1.1400 C   0  0  0  0  0  0  0  0  0  0  0  0
    6.6550   11.6060   -1.1480 C   0  0  0  0  0  0  0  0  0  0  0  0
    7.1350   10.2060   -3.3120 S   0  0  0  0  0  0  0  0  0  0  0  0
    7.4420   12.3970   -1.9540 C   0  0  0  0  0  0  0  0  0  0  0  0
    7.7960   11.8150   -3.1500 C   0  0  0  0  0  0  0  0  0  0  0  0
   -0.8350   -0.6920    0.2740 H   0  0  0  0  0  0  0  0  0  0  0  0
    0.5120   -0.2310   -1.7960 H   0  0  0  0  0  0  0  0  0  0  0  0
    1.9200    1.8380   -1.8940 H   0  0  0  0  0  0  0  0  0  0  0  0
    0.5010    2.7780    2.0920 H   0  0  0  0  0  0  0  0  0  0  0  0
    1.6140    4.3030   -1.9630 H   0  0  0  0  0  0  0  0  0  0  0  0
    3.9290   10.8610    3.0970 H   0  0  0  0  0  0  0  0  0  0  0  0
    5.4280   11.5840    1.0410 H   0  0  0  0  0  0  0  0  0  0  0  0
    7.7210   13.3860   -1.6110 H   0  0  0  0  0  0  0  0  0  0  0  0
    8.4020   12.2300   -3.9440 H   0  0  0  0  0  0  0  0  0  0  0  0
  1 29  1  0  0  0  0
  1  3  2  0  0  0  0
  2  1  1  0  0  0  0
  4  2  2  0  0  0  0
  4  6  1  0  0  0  0
  5  3  1  0  0  0  0
  5 32  1  0  0  0  0
  6  5  2  0  0  0  0
  7  6  1  0  0  0  0
  7  9  1  0  0  0  0
  8  7  2  0  0  0  0
  9 11  2  0  0  0  0
 10  8  1  0  0  0  0
 10 13  2  0  0  0  0
 11 14  1  0  0  0  0
 12  9  1  0  0  0  0
 12 15  2  0  0  0  0
 13 12  1  0  0  0  0
 15 14  1  0  0  0  0
 16 13  1  0  0  0  0
 16 18  1  0  0  0  0
 17 19  1  0  0  0  0
 17 16  2  0  0  0  0
 18 20  1  0  0  0  0
 19 22  1  6  0  0  0
 19 21  1  0  0  0  0
 20 23  1  0  0  0  0
 21 18  2  0  0  0  0
 21 24  1  0  0  0  0
 22 25  2  0  0  0  0
 23 34  1  0  0  0  0
 24 23  2  0  0  0  0
 26 28  1  0  0  0  0
 26 22  1  0  0  0  0
 27 36  1  0  0  0  0
 27 25  1  0  0  0  0
 28 27  2  0  0  0  0
 30  2  1  0  0  0  0
 31  4  1  0  0  0  0
 33  8  1  0  0  0  0
 35 24  1  0  0  0  0
 37 28  1  0  0  0  0
M  END
$$$$
scan_sander_basal/min_pdbs/min_pdb_C271_330.pdb
 OpenBabel09051719273D

 37 42  0  0  1  0  0  0  0  0999 V2000
   -0.2320    0.2110    0.0770 C   0  0  0  0  0  0  0  0  0  0  0  0
    0.6350    0.4320   -1.0050 C   0  0  0  0  0  0  0  0  0  0  0  0
   -0.3330    1.0640    1.1140 N   0  0  0  0  0  0  0  0  0  0  0  0
    1.4330    1.5870   -1.0100 C   0  0  0  0  0  0  0  0  0  0  0  0
    0.4370    2.1710    1.1080 C   0  0  0  0  0  0  0  0  0  0  0  0
    1.3510    2.4940    0.0730 C   0  0  0  0  0  0  0  0  0  0  0  0
    2.1690    3.7470    0.0950 C   0  0  0  0  0  0  0  0  0  0  0  0
    2.3220    4.5350   -1.0690 C   0  0  0  0  0  0  0  0  0  0  0  0
    2.8360    4.2230    1.2480 C   0  0  0  0  0  0  0  0  0  0  0  0
    3.0330    5.6790   -1.1130 N   0  0  0  0  0  0  0  0  0  0  0  0
    2.8670    3.5670    2.4250 N   0  0  0  0  0  0  0  0  0  0  0  0
    3.5650    5.4050    1.2140 C   0  0  0  0  0  0  0  0  0  0  0  0
    3.6260    6.1460    0.0070 C   0  0  0  0  0  0  0  0  0  0  0  0
    3.8340    4.4650    3.3890 S   0  0  0  0  0  0  0  0  0  0  0  0
    4.2300    5.6740    2.3600 N   0  0  0  0  0  0  0  0  0  0  0  0
    4.3570    7.4060   -0.1940 C   0  0  1  0  0  0  0  0  0  0  0  0
    5.1290    7.8830   -1.7170 B   0  0  0  0  0  0  0  0  0  0  0  0
    4.4230    8.4500    0.7050 C   0  0  0  0  0  0  0  0  0  0  0  0
    5.5900    9.4590   -1.0580 C   0  0  0  0  0  0  0  0  0  0  0  0
    3.6320    8.6460    2.2470 S   0  0  0  0  0  0  0  0  0  0  0  0
    5.0960    9.5690    0.2210 C   0  0  0  0  0  0  0  0  0  0  0  0
    6.3530   10.4490   -1.7760 C   0  0  0  0  0  0  0  0  0  0  0  0
    4.3480   10.2800    2.3160 C   0  0  0  0  0  0  0  0  0  0  0  0
    5.0680   10.6260    1.1810 C   0  0  0  0  0  0  0  0  0  0  0  0
    6.6360   11.6050   -1.2040 C   0  0  0  0  0  0  0  0  0  0  0  0
    6.9430   10.2140   -3.4060 S   0  0  0  0  0  0  0  0  0  0  0  0
    7.3660   12.3950   -2.0640 C   0  0  0  0  0  0  0  0  0  0  0  0
    7.6260   11.8170   -3.2850 C   0  0  0  0  0  0  0  0  0  0  0  0
   -0.8670   -0.6740    0.1140 H   0  0  0  0  0  0  0  0  0  0  0  0
    0.6850   -0.2810   -1.8220 H   0  0  0  0  0  0  0  0  0  0  0  0
    2.1150    1.7740   -1.8360 H   0  0  0  0  0  0  0  0  0  0  0  0
    0.3140    2.8370    1.9610 H   0  0  0  0  0  0  0  0  0  0  0  0
    1.8470    4.2360   -2.0030 H   0  0  0  0  0  0  0  0  0  0  0  0
    4.1620   10.8900    3.1900 H   0  0  0  0  0  0  0  0  0  0  0  0
    5.5300   11.5950    1.0400 H   0  0  0  0  0  0  0  0  0  0  0  0
    7.6770   13.3800   -1.7370 H   0  0  0  0  0  0  0  0  0  0  0  0
    8.1730   12.2320   -4.1200 H   0  0  0  0  0  0  0  0  0  0  0  0
  1 29  1  0  0  0  0
  1  3  2  0  0  0  0
  2  1  1  0  0  0  0
  4  2  2  0  0  0  0
  4  6  1  0  0  0  0
  5  3  1  0  0  0  0
  5 32  1  0  0  0  0
  6  7  1  0  0  0  0
  6  5  2  0  0  0  0
  7  9  1  0  0  0  0
  8  7  2  0  0  0  0
  9 11  2  0  0  0  0
 10  8  1  0  0  0  0
 10 13  2  0  0  0  0
 11 14  1  0  0  0  0
 12  9  1  0  0  0  0
 12 15  2  0  0  0  0
 13 12  1  0  0  0  0
 15 14  1  0  0  0  0
 16 13  1  6  0  0  0
 16 18  1  0  0  0  0
 17 19  2  0  0  0  0
 17 16  1  0  0  0  0
 18 20  1  0  0  0  0
 19 21  1  0  0  0  0
 20 23  1  0  0  0  0
 21 18  2  0  0  0  0
 21 24  1  0  0  0  0
 22 25  2  0  0  0  0
 22 19  1  0  0  0  0
 23 34  1  0  0  0  0
 24 23  2  0  0  0  0
 26 28  1  0  0  0  0
 26 22  1  0  0  0  0
 27 36  1  0  0  0  0
 27 25  1  0  0  0  0
 28 27  2  0  0  0  0
 30  2  1  0  0  0  0
 31  4  1  0  0  0  0
 33  8  1  0  0  0  0
 35 24  1  0  0  0  0
 37 28  1  0  0  0  0
M  END
$$$$
scan_sander_basal/min_pdbs/min_pdb_C271_345.pdb
 OpenBabel09051719273D

 37 42  0  0  1  0  0  0  0  0999 V2000
   -0.2040    0.1850   -0.0830 C   0  0  0  0  0  0  0  0  0  0  0  0
    0.7970    0.3740   -1.0490 C   0  0  0  0  0  0  0  0  0  0  0  0
   -0.4450    1.0760    0.8970 N   0  0  0  0  0  0  0  0  0  0  0  0
    1.5840    1.5350   -0.9940 C   0  0  0  0  0  0  0  0  0  0  0  0
    0.3140    2.1890    0.9500 C   0  0  0  0  0  0  0  0  0  0  0  0
    1.3550    2.4820    0.0320 C   0  0  0  0  0  0  0  0  0  0  0  0
    2.1570    3.7430    0.1130 C   0  0  0  0  0  0  0  0  0  0  0  0
    2.4580    4.4870   -1.0480 C   0  0  0  0  0  0  0  0  0  0  0  0
    2.6650    4.2710    1.3220 C   0  0  0  0  0  0  0  0  0  0  0  0
    3.1600    5.6360   -1.0390 N   0  0  0  0  0  0  0  0  0  0  0  0
    2.5490    3.6470    2.5110 N   0  0  0  0  0  0  0  0  0  0  0  0
    3.3860    5.4610    1.3410 C   0  0  0  0  0  0  0  0  0  0  0  0
    3.5940    6.1690    0.1260 C   0  0  0  0  0  0  0  0  0  0  0  0
    3.3860    4.5740    3.5630 S   0  0  0  0  0  0  0  0  0  0  0  0
    3.9040    5.7530    2.5550 N   0  0  0  0  0  0  0  0  0  0  0  0
    4.3350    7.4340   -0.0800 C   0  0  1  0  0  0  0  0  0  0  0  0
    4.9400    7.9410   -1.6730 B   0  0  0  0  0  0  0  0  0  0  0  0
    4.5240    8.4680    0.8220 C   0  0  0  0  0  0  0  0  0  0  0  0
    5.5320    9.4790   -1.0420 C   0  0  0  0  0  0  0  0  0  0  0  0
    3.9020    8.6960    2.4370 S   0  0  0  0  0  0  0  0  0  0  0  0
    5.1810    9.5760    0.2830 C   0  0  0  0  0  0  0  0  0  0  0  0
    6.2530   10.4520   -1.8240 C   0  0  0  0  0  0  0  0  0  0  0  0
    4.6850   10.2970    2.4470 C   0  0  0  0  0  0  0  0  0  0  0  0
    5.2940   10.6240    1.2460 C   0  0  0  0  0  0  0  0  0  0  0  0
    6.6450   11.5840   -1.2700 C   0  0  0  0  0  0  0  0  0  0  0  0
    6.6530   10.2240   -3.5110 S   0  0  0  0  0  0  0  0  0  0  0  0
    7.3100   12.3610   -2.1920 C   0  0  0  0  0  0  0  0  0  0  0  0
    7.4110   11.7960   -3.4430 C   0  0  0  0  0  0  0  0  0  0  0  0
   -0.8330   -0.7050   -0.0950 H   0  0  0  0  0  0  0  0  0  0  0  0
    0.9590   -0.3700   -1.8240 H   0  0  0  0  0  0  0  0  0  0  0  0
    2.3670    1.6980   -1.7290 H   0  0  0  0  0  0  0  0  0  0  0  0
    0.0760    2.8860    1.7530 H   0  0  0  0  0  0  0  0  0  0  0  0
    2.1160    4.1470   -2.0250 H   0  0  0  0  0  0  0  0  0  0  0  0
    4.6130   10.9050    3.3400 H   0  0  0  0  0  0  0  0  0  0  0  0
    5.7720   11.5790    1.0630 H   0  0  0  0  0  0  0  0  0  0  0  0
    7.6950   13.3260   -1.8870 H   0  0  0  0  0  0  0  0  0  0  0  0
    7.8820   12.2050   -4.3270 H   0  0  0  0  0  0  0  0  0  0  0  0
  1  3  2  0  0  0  0
  2  4  2  0  0  0  0
  2  1  1  0  0  0  0
  3  5  1  0  0  0  0
  4  6  1  0  0  0  0
  5 32  1  0  0  0  0
  6  7  1  0  0  0  0
  6  5  2  0  0  0  0
  7  9  1  0  0  0  0
  8 10  1  0  0  0  0
  8  7  2  0  0  0  0
  9 12  1  0  0  0  0
  9 11  2  0  0  0  0
 10 13  2  0  0  0  0
 11 14  1  0  0  0  0
 12 15  2  0  0  0  0
 13 12  1  0  0  0  0
 15 14  1  0  0  0  0
 16 13  1  6  0  0  0
 16 18  1  0  0  0  0
 17 19  2  0  0  0  0
 17 16  1  0  0  0  0
 18 20  1  0  0  0  0
 19 21  1  0  0  0  0
 20 23  1  0  0  0  0
 21 18  2  0  0  0  0
 21 24  1  0  0  0  0
 22 25  2  0  0  0  0
 22 19  1  0  0  0  0
 23 34  1  0  0  0  0
 24 23  2  0  0  0  0
 26 28  1  0  0  0  0
 26 22  1  0  0  0  0
 27 36  1  0  0  0  0
 27 25  1  0  0  0  0
 28 27  2  0  0  0  0
 29  1  1  0  0  0  0
 30  2  1  0  0  0  0
 31  4  1  0  0  0  0
 33  8  1  0  0  0  0
 35 24  1  0  0  0  0
 37 28  1  0  0  0  0
M  END
$$$$
scan_sander_basal/min_pdbs/min_pdb_C271_360.pdb
 OpenBabel09051719273D

 37 42  0  0  1  0  0  0  0  0999 V2000
   -0.0530    0.0910   -0.2780 C   0  0  0  0  0  0  0  0  0  0  0  0
    1.1240    0.2640   -1.0230 C   0  0  0  0  0  0  0  0  0  0  0  0
   -0.5300    1.0340    0.5570 N   0  0  0  0  0  0  0  0  0  0  0  0
    1.8390    1.4660   -0.8940 C   0  0  0  0  0  0  0  0  0  0  0  0
    0.1610    2.1860    0.6820 C   0  0  0  0  0  0  0  0  0  0  0  0
    1.3630    2.4680   -0.0160 C   0  0  0  0  0  0  0  0  0  0  0  0
    2.0870    3.7710    0.1320 C   0  0  0  0  0  0  0  0  0  0  0  0
    2.6010    4.4420   -0.9940 C   0  0  0  0  0  0  0  0  0  0  0  0
    2.3110    4.4110    1.3710 C   0  0  0  0  0  0  0  0  0  0  0  0
    3.2560    5.6150   -0.9280 N   0  0  0  0  0  0  0  0  0  0  0  0
    1.9080    3.8920    2.5480 N   0  0  0  0  0  0  0  0  0  0  0  0
    2.9920    5.6260    1.4500 C   0  0  0  0  0  0  0  0  0  0  0  0
    3.4720    6.2400    0.2550 C   0  0  0  0  0  0  0  0  0  0  0  0
    2.3950    4.9620    3.6780 S   0  0  0  0  0  0  0  0  0  0  0  0
    3.1140    6.0710    2.7170 N   0  0  0  0  0  0  0  0  0  0  0  0
    4.2150    7.5160    0.0420 C   0  0  1  0  0  0  0  0  0  0  0  0
    4.6910    8.0300   -1.5980 B   0  0  0  0  0  0  0  0  0  0  0  0
    4.6540    8.4790    0.9440 C   0  0  0  0  0  0  0  0  0  0  0  0
    5.4580    9.5020   -1.0170 C   0  0  0  0  0  0  0  0  0  0  0  0
    4.5160    8.5980    2.6810 S   0  0  0  0  0  0  0  0  0  0  0  0
    5.3290    9.5530    0.3490 C   0  0  0  0  0  0  0  0  0  0  0  0
    6.0970   10.4720   -1.8720 C   0  0  0  0  0  0  0  0  0  0  0  0
    5.3960   10.1420    2.6080 C   0  0  0  0  0  0  0  0  0  0  0  0
    5.7540   10.5080    1.3230 C   0  0  0  0  0  0  0  0  0  0  0  0
    6.6370   11.5590   -1.3530 C   0  0  0  0  0  0  0  0  0  0  0  0
    6.2060   10.2960   -3.6090 S   0  0  0  0  0  0  0  0  0  0  0  0
    7.1860   12.3390   -2.3450 C   0  0  0  0  0  0  0  0  0  0  0  0
    7.0520   11.8240   -3.6140 C   0  0  0  0  0  0  0  0  0  0  0  0
   -0.6340   -0.8280   -0.3530 H   0  0  0  0  0  0  0  0  0  0  0  0
    1.4740   -0.5210   -1.6870 H   0  0  0  0  0  0  0  0  0  0  0  0
    2.7550    1.6180   -1.4580 H   0  0  0  0  0  0  0  0  0  0  0  0
   -0.2700    2.9230    1.3580 H   0  0  0  0  0  0  0  0  0  0  0  0
    2.4710    4.0260   -1.9930 H   0  0  0  0  0  0  0  0  0  0  0  0
    5.5900   10.6760    3.5290 H   0  0  0  0  0  0  0  0  0  0  0  0
    6.2940   11.4190    1.0970 H   0  0  0  0  0  0  0  0  0  0  0  0
    7.6690   13.2710   -2.0750 H   0  0  0  0  0  0  0  0  0  0  0  0
    7.3950   12.2450   -4.5490 H   0  0  0  0  0  0  0  0  0  0  0  0
  1  3  2  0  0  0  0
  2  4  2  0  0  0  0
  2  1  1  0  0  0  0
  3  5  1  0  0  0  0
  4  6  1  0  0  0  0
  5 32  1  0  0  0  0
  6  7  1  0  0  0  0
  6  5  2  0  0  0  0
  7  9  1  0  0  0  0
  8 10  1  0  0  0  0
  8  7  2  0  0  0  0
  9 12  1  0  0  0  0
  9 11  2  0  0  0  0
 10 13  2  0  0  0  0
 11 14  1  0  0  0  0
 12 15  2  0  0  0  0
 13 12  1  0  0  0  0
 15 14  1  0  0  0  0
 16 13  1  6  0  0  0
 16 18  1  0  0  0  0
 17 19  2  0  0  0  0
 17 16  1  0  0  0  0
 18 20  1  0  0  0  0
 19 21  1  0  0  0  0
 21 18  2  0  0  0  0
 21 24  1  0  0  0  0
 22 25  2  0  0  0  0
 22 19  1  0  0  0  0
 23 20  1  0  0  0  0
 23 34  1  0  0  0  0
 24 23  2  0  0  0  0
 26 22  1  0  0  0  0
 27 36  1  0  0  0  0
 27 25  1  0  0  0  0
 28 26  1  0  0  0  0
 28 27  2  0  0  0  0
 29  1  1  0  0  0  0
 30  2  1  0  0  0  0
 31  4  1  0  0  0  0
 33  8  1  0  0  0  0
 35 24  1  0  0  0  0
 37 28  1  0  0  0  0
M  END
$$$$
