@<TRIPOS>MOLECULE
*****
   39    44     1     0     0
SMALL
No Charge or Current Charge


@<TRIPOS>ATOM
      1 C           -1.6320    -0.2290     0.3370 ca         1 LIG      -0.230789
      2 C1          -1.0960     0.8520    -0.3480 ca         1 LIG       0.017415
      3 C2          -0.7590    -1.1790     0.8330 ca         1 LIG       0.181244
      4 C3           0.2860     0.9370    -0.5180 ca         1 LIG      -0.246224
      5 N            0.5820    -1.1170     0.6830 nb         1 LIG      -0.365619
      6 C4           1.1060    -0.0700    -0.0070 cp         1 LIG       0.256875
      7 C5           2.5630    -0.0370    -0.1770 cp         1 LIG       0.192645
      8 N1           3.2010     1.1830    -0.2760 nb         1 LIG      -0.348441
      9 C6           3.3790    -1.1990    -0.2880 ca         1 LIG       0.087179
     10 C7           4.5670     1.2730    -0.4190 ca         1 LIG       0.105415
     11 N2           2.9920    -2.4880    -0.2820 nc         1 LIG      -0.404350
     12 C8           4.8810    -1.0500    -0.4670 ca         1 LIG       0.205141
     13 C9           5.4980     0.2320    -0.5060 ca         1 LIG      -0.061796
     14 S            4.3420    -3.4170    -0.4450 ss         1 LIG       0.606549
     15 N3           5.4920    -2.2440    -0.5930 nc         1 LIG      -0.496852
     16 C10          6.9480     0.4350    -0.6380 cc         1 LIG      -0.185379
     17 S1           8.0520    -0.6550     0.1110 ss         1 LIG       0.308961
     18 C11          7.6570     1.4530    -1.2430 ca         1 LIG       0.150402
     19 C12          9.4610     0.1550    -0.4510 cc         1 LIG      -0.210505
     20 N4           7.0550     2.5100    -1.8690 nb         1 LIG      -0.270984
     21 C13          9.0980     1.2920    -1.1490 ca         1 LIG       0.148149
     22 C14         10.7860    -0.3700    -0.1800 cc         1 LIG       0.027410
     23 C15          7.9750     3.3780    -2.3680 ca         1 LIG       0.076604
     24 N5           9.9920     2.1810    -1.6760 nb         1 LIG      -0.265034
     25 C16         11.9230    -0.2390    -0.9610 cd         1 LIG      -0.172110
     26 S2          11.1400    -1.2830     1.2400 ss         1 LIG       0.172656
     27 C17          9.3610     3.2240    -2.2760 ca         1 LIG       0.060153
     28 C18         13.0600    -0.9020    -0.4090 cd         1 LIG      -0.079189
     29 C19         12.7670    -1.5150     0.7870 cc         1 LIG      -0.279448
     30 H           -2.7020    -0.3290     0.4830 ha         1 LIG       0.121954
     31 H1          -1.7460     1.6230    -0.7520 ha         1 LIG       0.098456
     32 H2          -1.1220    -2.0440     1.3800 h4         1 LIG       0.063116
     33 H3           0.7160     1.7780    -1.0560 ha         1 LIG       0.125809
     34 H4           4.9100     2.3080    -0.4540 h4         1 LIG       0.066791
     35 H5           7.5570     4.2480    -2.8670 h4         1 LIG       0.080251
     36 H6          11.9420     0.3010    -1.9000 ha         1 LIG       0.117665
     37 H7          10.0210     3.9740    -2.7000 h4         1 LIG       0.081848
     38 H8          14.0410    -0.9290    -0.8670 ha         1 LIG       0.113633
     39 H9          13.4300    -2.0870     1.4210 h4         1 LIG       0.150399
@<TRIPOS>BOND
     1    26    29 1   
     2    29    28 2   
     3    28    25 1   
     4    25    22 2   
     5    26    22 1   
     6    22    19 1   
     7    19    17 1   
     8    17    16 1   
     9    16    13 1   
    10    13    10 ar  
    11    10     8 ar  
    12     8     7 ar  
    13     7     6 1   
    14     6     4 ar  
    15     4     2 ar  
    16     2     1 ar  
    17     1     3 ar  
    18     3     5 ar  
    19     6     5 ar  
    20     7     9 ar  
    21     9    11 2   
    22    11    14 1   
    23    14    15 1   
    24    15    12 2   
    25    13    12 ar  
    26     9    12 ar  
    27    16    18 2   
    28    18    20 ar  
    29    20    23 ar  
    30    23    27 ar  
    31    27    24 ar  
    32    24    21 ar  
    33    19    21 2   
    34    18    21 ar  
    35     1    30 1   
    36     2    31 1   
    37     3    32 1   
    38     4    33 1   
    39    10    34 1   
    40    23    35 1   
    41    25    36 1   
    42    27    37 1   
    43    28    38 1   
    44    29    39 1   
@<TRIPOS>SUBSTRUCTURE
     1 LIG         1 TEMP              0 ****  ****    0 ROOT
