@<TRIPOS>MOLECULE
*****
   37    42     1     0     0
SMALL
No Charge or Current Charge


@<TRIPOS>ATOM
      1 C            0.4800     1.5460     0.1810 ca         1 LIG       0.171998
      2 C1          -0.8430     1.2970     0.4890 ca         1 LIG      -0.230914
      3 N            1.3350     0.5910    -0.2270 nb         1 LIG      -0.353743
      4 C2          -1.3150    -0.0130     0.3830 ca         1 LIG      -0.062229
      5 C3           0.8450    -0.6730    -0.3210 ca         1 LIG       0.127807
      6 C4          -0.4680    -1.0570    -0.0290 cp         1 LIG       0.017710
      7 C5          -0.9490    -2.4430    -0.1530 cp         1 LIG      -0.139552
      8 C6          -2.2630    -2.7990    -0.4990 ca         1 LIG       0.123422
      9 C7          -0.1430    -3.5950     0.0710 ca         1 LIG       0.229630
     10 N1          -2.8130    -4.0510    -0.6260 nb         1 LIG      -0.376592
     11 N2           1.1520    -3.6030     0.4380 nc         1 LIG      -0.465449
     12 C8          -0.7010    -5.0030    -0.0810 ca         1 LIG       0.065231
     13 C9          -2.0670    -5.1800    -0.4330 ca         1 LIG       0.306270
     14 S            1.6340    -5.1780     0.5470 ss         1 LIG       0.611648
     15 N3           0.2320    -5.9490     0.1420 nc         1 LIG      -0.437074
     16 C10         -2.7250    -6.4690    -0.5830 cc         1 LIG      -0.253035
     17 S1          -2.2850    -7.8540     0.3330 ss         1 LIG       0.254646
     18 C11         -3.7870    -6.7750    -1.3970 cd         1 LIG      -0.003001
     19 C12         -3.4640    -8.8890    -0.3930 cc         1 LIG      -0.224802
     20 S2          -4.7340    -5.7750    -2.5820 ss         1 LIG       0.167028
     21 C13         -4.1670    -8.1180    -1.2700 cd         1 LIG       0.089191
     22 C14         -3.5940   -10.2870    -0.0480 cc         1 LIG       0.244076
     23 C15         -5.6540    -7.2380    -2.8700 cc         1 LIG      -0.224158
     24 C16         -5.2610    -8.3690    -2.1440 cd         1 LIG      -0.163488
     25 N4          -4.5040   -11.0780    -0.5880 nd         1 LIG      -0.361339
     26 S3          -2.5670   -11.0710     1.1060 ss         1 LIG       0.167272
     27 C17         -4.3960   -12.3560    -0.0700 cd         1 LIG       0.126645
     28 C18         -3.4010   -12.5410     0.8640 cc         1 LIG      -0.383763
     29 H            0.8980     2.5460     0.2560 h4         1 LIG       0.064049
     30 H1          -1.4950     2.1020     0.8090 ha         1 LIG       0.128736
     31 H2          -2.3530    -0.2010     0.6440 ha         1 LIG       0.103851
     32 H3           1.5860    -1.3880    -0.6690 h4         1 LIG       0.067913
     33 H4          -2.9920    -2.0170    -0.7190 h4         1 LIG       0.074647
     34 H5          -6.4590    -7.1760    -3.5890 h4         1 LIG       0.143275
     35 H6          -5.7630    -9.3240    -2.2550 ha         1 LIG       0.127194
     36 H7          -5.0740   -13.1290    -0.4100 h4         1 LIG       0.090651
     37 H8          -3.1310   -13.4400     1.3990 h4         1 LIG       0.176249
@<TRIPOS>BOND
     1    26    28 1   
     2    28    27 2   
     3    27    25 1   
     4    25    22 2   
     5    26    22 1   
     6    22    19 1   
     7    19    17 1   
     8    17    16 1   
     9    16    18 2   
    10    18    20 1   
    11    20    23 1   
    12    23    24 2   
    13    24    21 1   
    14    19    21 2   
    15    18    21 1   
    16    16    13 1   
    17    13    10 ar  
    18    10     8 ar  
    19     8     7 ar  
    20     7     6 1   
    21     6     4 ar  
    22     4     2 ar  
    23     2     1 ar  
    24     1     3 ar  
    25     3     5 ar  
    26     6     5 ar  
    27     7     9 ar  
    28     9    11 2   
    29    11    14 1   
    30    14    15 1   
    31    15    12 2   
    32    13    12 ar  
    33     9    12 ar  
    34     1    29 1   
    35     2    30 1   
    36     4    31 1   
    37     5    32 1   
    38     8    33 1   
    39    23    34 1   
    40    24    35 1   
    41    27    36 1   
    42    28    37 1   
@<TRIPOS>SUBSTRUCTURE
     1 LIG         1 TEMP              0 ****  ****    0 ROOT
