scan_sander_basal/min_pdbs/min_pdb_C169_000.pdb
 OpenBabel09051718423D

 39 44  0  0  1  0  0  0  0  0999 V2000
   -0.2300    0.1890   -0.1970 C   0  0  0  0  0  0  0  0  0  0  0  0
    0.6770    0.4690   -1.2270 C   0  0  0  0  0  0  0  0  0  0  0  0
   -0.3150    1.0770    0.8840 C   0  0  0  0  0  0  0  0  0  0  0  0
    1.4590    1.6290   -1.1280 C   0  0  0  0  0  0  0  0  0  0  0  0
    0.4390    2.1880    0.9700 N   0  0  0  0  0  0  0  0  0  0  0  0
    1.3270    2.4890   -0.0040 C   0  0  0  0  0  0  0  0  0  0  0  0
    2.1530    3.7510    0.1260 C   0  0  0  0  0  0  0  0  0  0  0  0
    2.6510    4.2490   -1.0260 N   0  0  0  0  0  0  0  0  0  0  0  0
    2.4500    4.4200    1.3450 C   0  0  0  0  0  0  0  0  0  0  0  0
    3.4050    5.3640   -1.0240 C   0  0  0  0  0  0  0  0  0  0  0  0
    2.0250    4.0240    2.5660 N   0  0  0  0  0  0  0  0  0  0  0  0
    3.2390    5.5730    1.3460 C   0  0  0  0  0  0  0  0  0  0  0  0
    3.7790    6.0880    0.1340 C   0  0  0  0  0  0  0  0  0  0  0  0
    2.5940    5.1370    3.6130 S   0  0  0  0  0  0  0  0  0  0  0  0
    3.3840    6.1110    2.5720 N   0  0  0  0  0  0  0  0  0  0  0  0
    4.6130    7.3190   -0.0440 C   0  0  1  0  0  0  0  0  0  0  0  0
    5.0890    7.8070   -1.6930 B   0  0  0  0  0  0  0  0  0  0  0  0
    5.0990    8.3130    0.9330 C   0  0  0  0  0  0  0  0  0  0  0  0
    5.4490    9.4240   -1.1120 C   0  0  2  0  0  0  0  0  0  0  0  0
    5.3140    8.0840    2.2440 N   0  0  0  0  0  0  0  0  0  0  0  0
    5.5190    9.5090    0.3370 C   0  0  0  0  0  0  0  0  0  0  0  0
    5.6360   10.5640   -1.9750 C   0  0  0  0  0  0  0  0  0  0  0  0
    5.8770    9.0830    2.9550 C   0  0  0  0  0  0  0  0  0  0  0  0
    6.1310   10.4980    1.0230 N   0  0  0  0  0  0  0  0  0  0  0  0
    5.4530   11.8640   -1.5660 C   0  0  0  0  0  0  0  0  0  0  0  0
    6.1310   10.4600   -3.6600 S   0  0  0  0  0  0  0  0  0  0  0  0
    6.2780   10.2890    2.3480 C   0  0  0  0  0  0  0  0  0  0  0  0
    5.7140   12.8020   -2.6070 C   0  0  0  0  0  0  0  0  0  0  0  0
    6.0920   12.2160   -3.7910 C   0  0  0  0  0  0  0  0  0  0  0  0
   -0.8550   -0.6980   -0.2330 H   0  0  0  0  0  0  0  0  0  0  0  0
    0.7720   -0.1960   -2.0820 H   0  0  0  0  0  0  0  0  0  0  0  0
   -1.0080    0.8970    1.7050 H   0  0  0  0  0  0  0  0  0  0  0  0
    2.1690    1.8610   -1.9150 H   0  0  0  0  0  0  0  0  0  0  0  0
    3.7310    5.6580   -2.0170 H   0  0  0  0  0  0  0  0  0  0  0  0
    6.0240    8.9070    4.0190 H   0  0  0  0  0  0  0  0  0  0  0  0
    5.1250   12.1680   -0.5800 H   0  0  0  0  0  0  0  0  0  0  0  0
    6.7500   11.0840    2.9240 H   0  0  0  0  0  0  0  0  0  0  0  0
    5.6180   13.8740   -2.4700 H   0  0  0  0  0  0  0  0  0  0  0  0
    6.3450   12.6910   -4.7300 H   0  0  0  0  0  0  0  0  0  0  0  0
  1  3  2  0  0  0  0
  2  4  2  0  0  0  0
  2  1  1  0  0  0  0
  3  5  1  0  0  0  0
  3 32  1  0  0  0  0
  4  6  1  0  0  0  0
  6  7  1  0  0  0  0
  6  5  2  0  0  0  0
  7  9  1  0  0  0  0
  8 10  1  0  0  0  0
  8  7  2  0  0  0  0
  9 12  1  0  0  0  0
  9 11  2  0  0  0  0
 10 13  2  0  0  0  0
 11 14  1  0  0  0  0
 12 15  2  0  0  0  0
 13 12  1  0  0  0  0
 15 14  1  0  0  0  0
 16 13  1  6  0  0  0
 16 18  1  0  0  0  0
 17 19  1  0  0  0  0
 17 16  1  0  0  0  0
 18 20  1  0  0  0  0
 19 22  1  1  0  0  0
 19 21  1  0  0  0  0
 20 23  2  0  0  0  0
 21 18  2  0  0  0  0
 21 24  1  0  0  0  0
 22 25  2  0  0  0  0
 23 35  1  0  0  0  0
 24 27  2  0  0  0  0
 25 36  1  0  0  0  0
 26 22  1  0  0  0  0
 27 37  1  0  0  0  0
 27 23  1  0  0  0  0
 28 38  1  0  0  0  0
 28 25  1  0  0  0  0
 29 26  1  0  0  0  0
 29 28  2  0  0  0  0
 30  1  1  0  0  0  0
 31  2  1  0  0  0  0
 33  4  1  0  0  0  0
 34 10  1  0  0  0  0
 39 29  1  0  0  0  0
M  END
$$$$
scan_sander_basal/min_pdbs/min_pdb_C169_015.pdb
 OpenBabel09051718423D

 39 44  0  0  1  0  0  0  0  0999 V2000
   -0.1520    0.1290   -0.0770 C   0  0  0  0  0  0  0  0  0  0  0  0
    0.8720    0.3090   -1.0160 C   0  0  0  0  0  0  0  0  0  0  0  0
   -0.3830    1.1390    0.8680 C   0  0  0  0  0  0  0  0  0  0  0  0
    1.6200    1.4940   -0.9650 C   0  0  0  0  0  0  0  0  0  0  0  0
    0.3400    2.2730    0.9080 N   0  0  0  0  0  0  0  0  0  0  0  0
    1.3380    2.4790    0.0200 C   0  0  0  0  0  0  0  0  0  0  0  0
    2.1250    3.7700    0.0940 C   0  0  0  0  0  0  0  0  0  0  0  0
    2.7560    4.1410   -1.0430 N   0  0  0  0  0  0  0  0  0  0  0  0
    2.2580    4.5870    1.2520 C   0  0  0  0  0  0  0  0  0  0  0  0
    3.4920    5.2670   -1.0850 C   0  0  0  0  0  0  0  0  0  0  0  0
    1.6740    4.3470    2.4480 N   0  0  0  0  0  0  0  0  0  0  0  0
    3.0300    5.7480    1.2090 C   0  0  0  0  0  0  0  0  0  0  0  0
    3.7120    6.1180    0.0210 C   0  0  0  0  0  0  0  0  0  0  0  0
    2.0810    5.6100    3.3980 S   0  0  0  0  0  0  0  0  0  0  0  0
    2.9870    6.4680    2.3480 N   0  0  0  0  0  0  0  0  0  0  0  0
    4.5560    7.3290   -0.1670 C   0  0  1  0  0  0  0  0  0  0  0  0
    4.9260    7.8970   -1.8130 B   0  0  0  0  0  0  0  0  0  0  0  0
    5.1250    8.2380    0.8370 C   0  0  0  0  0  0  0  0  0  0  0  0
    5.3870    9.4620   -1.1520 C   0  0  2  0  0  0  0  0  0  0  0  0
    5.4310    7.8880    2.1040 N   0  0  0  0  0  0  0  0  0  0  0  0
    5.5510    9.4530    0.2940 C   0  0  0  0  0  0  0  0  0  0  0  0
    5.5660   10.6490   -1.9510 C   0  0  0  0  0  0  0  0  0  0  0  0
    6.0840    8.8120    2.8390 C   0  0  0  0  0  0  0  0  0  0  0  0
    6.2530   10.3650    1.0020 N   0  0  0  0  0  0  0  0  0  0  0  0
    5.4600   11.9230   -1.4490 C   0  0  0  0  0  0  0  0  0  0  0  0
    5.9500   10.6390   -3.6670 S   0  0  0  0  0  0  0  0  0  0  0  0
    6.4860   10.0490    2.2930 C   0  0  0  0  0  0  0  0  0  0  0  0
    5.6930   12.9190   -2.4410 C   0  0  0  0  0  0  0  0  0  0  0  0
    5.9730   12.4010   -3.6830 C   0  0  0  0  0  0  0  0  0  0  0  0
   -0.7560   -0.7730   -0.0800 H   0  0  0  0  0  0  0  0  0  0  0  0
    1.0810   -0.4510   -1.7650 H   0  0  0  0  0  0  0  0  0  0  0  0
   -1.1700    1.0380    1.6150 H   0  0  0  0  0  0  0  0  0  0  0  0
    2.4200    1.6500   -1.6830 H   0  0  0  0  0  0  0  0  0  0  0  0
    3.9580    5.4570   -2.0490 H   0  0  0  0  0  0  0  0  0  0  0  0
    6.3060    8.5510    3.8730 H   0  0  0  0  0  0  0  0  0  0  0  0
    5.2060   12.1720   -0.4250 H   0  0  0  0  0  0  0  0  0  0  0  0
    7.0300   10.7800    2.8890 H   0  0  0  0  0  0  0  0  0  0  0  0
    5.6480   13.9830   -2.2300 H   0  0  0  0  0  0  0  0  0  0  0  0
    6.1860   12.9280   -4.6030 H   0  0  0  0  0  0  0  0  0  0  0  0
  1  3  2  0  0  0  0
  2  4  2  0  0  0  0
  2  1  1  0  0  0  0
  3  5  1  0  0  0  0
  3 32  1  0  0  0  0
  4  6  1  0  0  0  0
  6  7  1  0  0  0  0
  6  5  2  0  0  0  0
  7  9  1  0  0  0  0
  8  7  2  0  0  0  0
  9 11  2  0  0  0  0
 10  8  1  0  0  0  0
 10 13  2  0  0  0  0
 11 14  1  0  0  0  0
 12  9  1  0  0  0  0
 12 15  2  0  0  0  0
 13 12  1  0  0  0  0
 15 14  1  0  0  0  0
 16 13  1  6  0  0  0
 16 18  1  0  0  0  0
 17 19  1  0  0  0  0
 17 16  1  0  0  0  0
 18 20  1  0  0  0  0
 19 22  1  1  0  0  0
 19 21  1  0  0  0  0
 20 23  2  0  0  0  0
 21 18  2  0  0  0  0
 21 24  1  0  0  0  0
 22 25  2  0  0  0  0
 23 35  1  0  0  0  0
 24 27  2  0  0  0  0
 25 36  1  0  0  0  0
 26 22  1  0  0  0  0
 27 23  1  0  0  0  0
 27 37  1  0  0  0  0
 28 38  1  0  0  0  0
 28 25  1  0  0  0  0
 29 26  1  0  0  0  0
 29 28  2  0  0  0  0
 30  1  1  0  0  0  0
 31  2  1  0  0  0  0
 33  4  1  0  0  0  0
 34 10  1  0  0  0  0
 39 29  1  0  0  0  0
M  END
$$$$
scan_sander_basal/min_pdbs/min_pdb_C169_030.pdb
 OpenBabel09051718423D

 39 44  0  0  1  0  0  0  0  0999 V2000
   -0.0450    0.0550    0.0540 C   0  0  0  0  0  0  0  0  0  0  0  0
    1.0510    0.1880   -0.8080 C   0  0  0  0  0  0  0  0  0  0  0  0
   -0.3880    1.1370    0.8770 C   0  0  0  0  0  0  0  0  0  0  0  0
    1.7570    1.4000   -0.8050 C   0  0  0  0  0  0  0  0  0  0  0  0
    0.2940    2.2970    0.8720 N   0  0  0  0  0  0  0  0  0  0  0  0
    1.3600    2.4590    0.0560 C   0  0  0  0  0  0  0  0  0  0  0  0
    2.0970    3.7810    0.0750 C   0  0  0  0  0  0  0  0  0  0  0  0
    2.8160    4.0710   -1.0360 N   0  0  0  0  0  0  0  0  0  0  0  0
    2.1000    4.7020    1.1620 C   0  0  0  0  0  0  0  0  0  0  0  0
    3.5160    5.2190   -1.1190 C   0  0  0  0  0  0  0  0  0  0  0  0
    1.4280    4.5510    2.3250 N   0  0  0  0  0  0  0  0  0  0  0  0
    2.8330    5.8830    1.0760 C   0  0  0  0  0  0  0  0  0  0  0  0
    3.5940    6.1690   -0.0810 C   0  0  0  0  0  0  0  0  0  0  0  0
    1.7210    5.9110    3.1810 S   0  0  0  0  0  0  0  0  0  0  0  0
    2.6840    6.7090    2.1320 N   0  0  0  0  0  0  0  0  0  0  0  0
    4.4060    7.3870   -0.2820 C   0  0  1  0  0  0  0  0  0  0  0  0
    4.6060    8.0680   -1.9100 B   0  0  0  0  0  0  0  0  0  0  0  0
    5.0860    8.1910    0.7340 C   0  0  0  0  0  0  0  0  0  0  0  0
    5.2730    9.5320   -1.1890 C   0  0  2  0  0  0  0  0  0  0  0  0
    5.4130    7.7460    1.9650 N   0  0  0  0  0  0  0  0  0  0  0  0
    5.5550    9.4090    0.2360 C   0  0  0  0  0  0  0  0  0  0  0  0
    5.5020   10.7490   -1.9300 C   0  0  0  0  0  0  0  0  0  0  0  0
    6.1600    8.5850    2.7150 C   0  0  0  0  0  0  0  0  0  0  0  0
    6.3450   10.2320    0.9590 N   0  0  0  0  0  0  0  0  0  0  0  0
    5.5650   11.9930   -1.3500 C   0  0  0  0  0  0  0  0  0  0  0  0
    5.7410   10.8150   -3.6710 S   0  0  0  0  0  0  0  0  0  0  0  0
    6.6190    9.8220    2.2170 C   0  0  0  0  0  0  0  0  0  0  0  0
    5.8140   13.0250   -2.3010 C   0  0  0  0  0  0  0  0  0  0  0  0
    5.9380   12.5630   -3.5900 C   0  0  0  0  0  0  0  0  0  0  0  0
   -0.6190   -0.8650    0.0850 H   0  0  0  0  0  0  0  0  0  0  0  0
    1.3490   -0.6280   -1.4610 H   0  0  0  0  0  0  0  0  0  0  0  0
   -1.2340    1.0760    1.5610 H   0  0  0  0  0  0  0  0  0  0  0  0
    2.6110    1.5200   -1.4630 H   0  0  0  0  0  0  0  0  0  0  0  0
    4.0680    5.3550   -2.0470 H   0  0  0  0  0  0  0  0  0  0  0  0
    6.4090    8.2520    3.7210 H   0  0  0  0  0  0  0  0  0  0  0  0
    5.4200   12.2000   -0.2970 H   0  0  0  0  0  0  0  0  0  0  0  0
    7.2380   10.4800    2.8240 H   0  0  0  0  0  0  0  0  0  0  0  0
    5.8920   14.0720   -2.0270 H   0  0  0  0  0  0  0  0  0  0  0  0
    6.1270   13.1260   -4.4940 H   0  0  0  0  0  0  0  0  0  0  0  0
  1 30  1  0  0  0  0
  1  3  2  0  0  0  0
  2  4  2  0  0  0  0
  2  1  1  0  0  0  0
  3 32  1  0  0  0  0
  4  6  1  0  0  0  0
  5  3  1  0  0  0  0
  6  7  1  0  0  0  0
  6  5  2  0  0  0  0
  7  9  1  0  0  0  0
  8  7  2  0  0  0  0
  9 11  2  0  0  0  0
 10  8  1  0  0  0  0
 10 13  2  0  0  0  0
 11 14  1  0  0  0  0
 12  9  1  0  0  0  0
 12 15  2  0  0  0  0
 13 12  1  0  0  0  0
 15 14  1  0  0  0  0
 16 13  1  1  0  0  0
 16 18  1  0  0  0  0
 17 19  1  0  0  0  0
 17 16  1  0  0  0  0
 18 20  1  0  0  0  0
 19 22  1  1  0  0  0
 19 21  1  0  0  0  0
 20 23  2  0  0  0  0
 21 18  2  0  0  0  0
 21 24  1  0  0  0  0
 22 25  2  0  0  0  0
 23 35  1  0  0  0  0
 24 27  2  0  0  0  0
 25 36  1  0  0  0  0
 26 29  1  0  0  0  0
 26 22  1  0  0  0  0
 27 23  1  0  0  0  0
 27 37  1  0  0  0  0
 28 38  1  0  0  0  0
 28 25  1  0  0  0  0
 29 28  2  0  0  0  0
 31  2  1  0  0  0  0
 33  4  1  0  0  0  0
 34 10  1  0  0  0  0
 39 29  1  0  0  0  0
M  END
$$$$
scan_sander_basal/min_pdbs/min_pdb_C169_045.pdb
 OpenBabel09051718423D

 39 44  0  0  1  0  0  0  0  0999 V2000
    0.0570    0.0040    0.1630 C   0  0  0  0  0  0  0  0  0  0  0  0
    1.2230    0.1060   -0.6050 C   0  0  0  0  0  0  0  0  0  0  0  0
   -0.3920    1.1350    0.8590 C   0  0  0  0  0  0  0  0  0  0  0  0
    1.8900    1.3390   -0.6420 C   0  0  0  0  0  0  0  0  0  0  0  0
    0.2540    2.3150    0.8180 N   0  0  0  0  0  0  0  0  0  0  0  0
    1.3860    2.4490    0.0890 C   0  0  0  0  0  0  0  0  0  0  0  0
    2.0780    3.7940    0.0640 C   0  0  0  0  0  0  0  0  0  0  0  0
    2.8890    4.0210   -1.0000 N   0  0  0  0  0  0  0  0  0  0  0  0
    1.9520    4.7980    1.0680 C   0  0  0  0  0  0  0  0  0  0  0  0
    3.5580    5.1850   -1.1160 C   0  0  0  0  0  0  0  0  0  0  0  0
    1.1950    4.7140    2.1860 N   0  0  0  0  0  0  0  0  0  0  0  0
    2.6480    5.9950    0.9460 C   0  0  0  0  0  0  0  0  0  0  0  0
    3.4900    6.2160   -0.1620 C   0  0  0  0  0  0  0  0  0  0  0  0
    1.3880    6.1450    2.9540 S   0  0  0  0  0  0  0  0  0  0  0  0
    2.4110    6.8940    1.9240 N   0  0  0  0  0  0  0  0  0  0  0  0
    4.2640    7.4480   -0.3640 C   0  0  1  0  0  0  0  0  0  0  0  0
    4.2960    8.2520   -1.9430 B   0  0  0  0  0  0  0  0  0  0  0  0
    5.0530    8.1490    0.6430 C   0  0  0  0  0  0  0  0  0  0  0  0
    5.1620    9.6030   -1.2040 C   0  0  0  0  0  0  0  0  0  0  0  0
    5.3880    7.6270    1.8410 N   0  0  0  0  0  0  0  0  0  0  0  0
    5.5560    9.3670    0.1830 C   0  0  0  0  0  0  0  0  0  0  0  0
    5.4380   10.8370   -1.8990 C   0  0  0  0  0  0  0  0  0  0  0  0
    6.2170    8.3830    2.5920 C   0  0  0  0  0  0  0  0  0  0  0  0
    6.4210   10.1070    0.9090 N   0  0  0  0  0  0  0  0  0  0  0  0
    5.6700   12.0360   -1.2690 C   0  0  0  0  0  0  0  0  0  0  0  0
    5.5260   10.9800   -3.6500 S   0  0  0  0  0  0  0  0  0  0  0  0
    6.7300    9.6150    2.1290 C   0  0  0  0  0  0  0  0  0  0  0  0
    5.9300   13.0930   -2.1890 C   0  0  0  0  0  0  0  0  0  0  0  0
    5.8950   12.6960   -3.5040 C   0  0  0  0  0  0  0  0  0  0  0  0
   -0.4910   -0.9310    0.2200 H   0  0  0  0  0  0  0  0  0  0  0  0
    1.6030   -0.7490   -1.1590 H   0  0  0  0  0  0  0  0  0  0  0  0
   -1.2950    1.0980    1.4670 H   0  0  0  0  0  0  0  0  0  0  0  0
    2.7980    1.4370   -1.2290 H   0  0  0  0  0  0  0  0  0  0  0  0
    4.1900    5.2820   -1.9980 H   0  0  0  0  0  0  0  0  0  0  0  0
    6.4870    7.9910    3.5710 H   0  0  0  0  0  0  0  0  0  0  0  0
    5.6380   12.1990   -0.1990 H   0  0  0  0  0  0  0  0  0  0  0  0
    7.4120   10.2060    2.7380 H   0  0  0  0  0  0  0  0  0  0  0  0
    6.1300   14.1120   -1.8740 H   0  0  0  0  0  0  0  0  0  0  0  0
    6.0550   13.2900   -4.3940 H   0  0  0  0  0  0  0  0  0  0  0  0
  1 30  1  0  0  0  0
  1  3  2  0  0  0  0
  2  1  1  0  0  0  0
  3 32  1  0  0  0  0
  4  2  2  0  0  0  0
  4  6  1  0  0  0  0
  5  3  1  0  0  0  0
  6  5  2  0  0  0  0
  7  6  1  0  0  0  0
  7  9  1  0  0  0  0
  8  7  2  0  0  0  0
  9 11  2  0  0  0  0
 10  8  1  0  0  0  0
 10 13  2  0  0  0  0
 11 14  1  0  0  0  0
 12  9  1  0  0  0  0
 12 15  2  0  0  0  0
 13 12  1  0  0  0  0
 15 14  1  0  0  0  0
 16 13  1  1  0  0  0
 16 18  1  0  0  0  0
 17 19  2  0  0  0  0
 17 16  1  0  0  0  0
 18 20  1  0  0  0  0
 19 21  1  0  0  0  0
 20 23  2  0  0  0  0
 21 18  2  0  0  0  0
 21 24  1  0  0  0  0
 22 25  2  0  0  0  0
 22 19  1  0  0  0  0
 23 35  1  0  0  0  0
 24 27  2  0  0  0  0
 25 36  1  0  0  0  0
 26 29  1  0  0  0  0
 26 22  1  0  0  0  0
 27 23  1  0  0  0  0
 27 37  1  0  0  0  0
 28 38  1  0  0  0  0
 28 25  1  0  0  0  0
 29 28  2  0  0  0  0
 31  2  1  0  0  0  0
 33  4  1  0  0  0  0
 34 10  1  0  0  0  0
 39 29  1  0  0  0  0
M  END
$$$$
scan_sander_basal/min_pdbs/min_pdb_C169_060.pdb
 OpenBabel09051718423D

 39 44  0  0  1  0  0  0  0  0999 V2000
    0.1300   -0.0230    0.2420 C   0  0  0  0  0  0  0  0  0  0  0  0
    1.3730    0.0540   -0.4000 C   0  0  0  0  0  0  0  0  0  0  0  0
   -0.4170    1.1450    0.7920 C   0  0  0  0  0  0  0  0  0  0  0  0
    2.0130    1.3000   -0.4620 C   0  0  0  0  0  0  0  0  0  0  0  0
    0.2040    2.3360    0.7260 N   0  0  0  0  0  0  0  0  0  0  0  0
    1.4060    2.4470    0.1170 C   0  0  0  0  0  0  0  0  0  0  0  0
    2.0680    3.8060    0.0590 C   0  0  0  0  0  0  0  0  0  0  0  0
    2.9880    3.9760   -0.9250 N   0  0  0  0  0  0  0  0  0  0  0  0
    1.8070    4.8800    0.9620 C   0  0  0  0  0  0  0  0  0  0  0  0
    3.6390    5.1490   -1.0610 C   0  0  0  0  0  0  0  0  0  0  0  0
    0.9450    4.8580    2.0030 N   0  0  0  0  0  0  0  0  0  0  0  0
    2.4800    6.0860    0.8160 C   0  0  0  0  0  0  0  0  0  0  0  0
    3.4270    6.2470   -0.2110 C   0  0  0  0  0  0  0  0  0  0  0  0
    1.0370    6.3460    2.6780 S   0  0  0  0  0  0  0  0  0  0  0  0
    2.1440    7.0470    1.7010 N   0  0  0  0  0  0  0  0  0  0  0  0
    4.1710    7.4920   -0.4090 C   0  0  1  0  0  0  0  0  0  0  0  0
    4.0590    8.4070   -1.9190 B   0  0  0  0  0  0  0  0  0  0  0  0
    5.0560    8.1040    0.5700 C   0  0  0  0  0  0  0  0  0  0  0  0
    5.0770    9.6590   -1.1950 C   0  0  0  0  0  0  0  0  0  0  0  0
    5.4170    7.5170    1.7290 N   0  0  0  0  0  0  0  0  0  0  0  0
    5.5740    9.3250    0.1390 C   0  0  0  0  0  0  0  0  0  0  0  0
    5.3710   10.9080   -1.8550 C   0  0  0  0  0  0  0  0  0  0  0  0
    6.3160    8.2070    2.4650 C   0  0  0  0  0  0  0  0  0  0  0  0
    6.5030    9.9980    0.8510 N   0  0  0  0  0  0  0  0  0  0  0  0
    5.7370   12.0590   -1.1980 C   0  0  0  0  0  0  0  0  0  0  0  0
    5.3130   11.1320   -3.5990 S   0  0  0  0  0  0  0  0  0  0  0  0
    6.8570    9.4360    2.0280 C   0  0  0  0  0  0  0  0  0  0  0  0
    5.9840   13.1410   -2.0920 C   0  0  0  0  0  0  0  0  0  0  0  0
    5.8070   12.8120   -3.4140 C   0  0  0  0  0  0  0  0  0  0  0  0
   -0.4000   -0.9680    0.3150 H   0  0  0  0  0  0  0  0  0  0  0  0
    1.8300   -0.8300   -0.8380 H   0  0  0  0  0  0  0  0  0  0  0  0
   -1.3810    1.1280    1.2990 H   0  0  0  0  0  0  0  0  0  0  0  0
    2.9780    1.3790   -0.9530 H   0  0  0  0  0  0  0  0  0  0  0  0
    4.3630    5.2050   -1.8720 H   0  0  0  0  0  0  0  0  0  0  0  0
    6.6180    7.7620    3.4120 H   0  0  0  0  0  0  0  0  0  0  0  0
    5.8100   12.1720   -0.1240 H   0  0  0  0  0  0  0  0  0  0  0  0
    7.5940    9.9710    2.6250 H   0  0  0  0  0  0  0  0  0  0  0  0
    6.2780   14.1290   -1.7520 H   0  0  0  0  0  0  0  0  0  0  0  0
    5.9260   13.4380   -4.2880 H   0  0  0  0  0  0  0  0  0  0  0  0
  1 30  1  0  0  0  0
  1  3  2  0  0  0  0
  2  1  1  0  0  0  0
  3 32  1  0  0  0  0
  4  2  2  0  0  0  0
  4  6  1  0  0  0  0
  5  3  1  0  0  0  0
  6  5  2  0  0  0  0
  7  6  1  0  0  0  0
  7  9  1  0  0  0  0
  8  7  2  0  0  0  0
  9 11  2  0  0  0  0
 10  8  1  0  0  0  0
 10 13  2  0  0  0  0
 11 14  1  0  0  0  0
 12  9  1  0  0  0  0
 12 15  2  0  0  0  0
 13 12  1  0  0  0  0
 15 14  1  0  0  0  0
 16 13  1  1  0  0  0
 16 18  1  0  0  0  0
 17 19  2  0  0  0  0
 17 16  1  0  0  0  0
 18 20  1  0  0  0  0
 19 21  1  0  0  0  0
 20 23  2  0  0  0  0
 21 18  2  0  0  0  0
 21 24  1  0  0  0  0
 22 25  2  0  0  0  0
 22 19  1  0  0  0  0
 23 35  1  0  0  0  0
 24 27  2  0  0  0  0
 25 36  1  0  0  0  0
 26 29  1  0  0  0  0
 26 22  1  0  0  0  0
 27 23  1  0  0  0  0
 27 37  1  0  0  0  0
 28 38  1  0  0  0  0
 28 25  1  0  0  0  0
 29 28  2  0  0  0  0
 31  2  1  0  0  0  0
 33  4  1  0  0  0  0
 34 10  1  0  0  0  0
 39 29  1  0  0  0  0
M  END
$$$$
scan_sander_basal/min_pdbs/min_pdb_C169_075.pdb
 OpenBabel09051718423D

 39 44  0  0  1  0  0  0  0  0999 V2000
    0.1750   -0.0370    0.2990 C   0  0  0  0  0  0  0  0  0  0  0  0
    1.4900    0.0230   -0.1790 C   0  0  0  0  0  0  0  0  0  0  0  0
   -0.4590    1.1560    0.6760 C   0  0  0  0  0  0  0  0  0  0  0  0
    2.1130    1.2760   -0.2580 C   0  0  0  0  0  0  0  0  0  0  0  0
    0.1460    2.3550    0.5960 N   0  0  0  0  0  0  0  0  0  0  0  0
    1.4170    2.4490    0.1420 C   0  0  0  0  0  0  0  0  0  0  0  0
    2.0580    3.8170    0.0620 C   0  0  0  0  0  0  0  0  0  0  0  0
    3.0980    3.9330   -0.8030 N   0  0  0  0  0  0  0  0  0  0  0  0
    1.6620    4.9500    0.8340 C   0  0  0  0  0  0  0  0  0  0  0  0
    3.7420    5.1100   -0.9470 C   0  0  0  0  0  0  0  0  0  0  0  0
    0.6750    4.9860    1.7570 N   0  0  0  0  0  0  0  0  0  0  0  0
    2.3280    6.1590    0.6790 C   0  0  0  0  0  0  0  0  0  0  0  0
    3.3960    6.2640   -0.2270 C   0  0  0  0  0  0  0  0  0  0  0  0
    0.6610    6.5230    2.3200 S   0  0  0  0  0  0  0  0  0  0  0  0
    1.8740    7.1750    1.4400 N   0  0  0  0  0  0  0  0  0  0  0  0
    4.1280    7.5140   -0.4200 C   0  0  0  0  0  0  0  0  0  0  0  0
    3.8970    8.5160   -1.8580 B   0  0  0  0  0  0  0  0  0  0  0  0
    5.0990    8.0560    0.5130 C   0  0  0  0  0  0  0  0  0  0  0  0
    5.0180    9.6980   -1.1680 C   0  0  2  0  0  0  0  0  0  0  0  0
    5.5170    7.4120    1.6220 N   0  0  0  0  0  0  0  0  0  0  0  0
    5.6130    9.2850    0.1030 C   0  0  0  0  0  0  0  0  0  0  0  0
    5.3010   10.9670   -1.7960 C   0  0  0  0  0  0  0  0  0  0  0  0
    6.4810    8.0470    2.3230 C   0  0  0  0  0  0  0  0  0  0  0  0
    6.6040    9.9060    0.7790 N   0  0  0  0  0  0  0  0  0  0  0  0
    5.7630   12.0750   -1.1250 C   0  0  0  0  0  0  0  0  0  0  0  0
    5.1030   11.2720   -3.5180 S   0  0  0  0  0  0  0  0  0  0  0  0
    7.0240    9.2810    1.9020 C   0  0  0  0  0  0  0  0  0  0  0  0
    5.9710   13.1880   -1.9900 C   0  0  0  0  0  0  0  0  0  0  0  0
    5.6710   12.9250   -3.3040 C   0  0  0  0  0  0  0  0  0  0  0  0
   -0.3460   -0.9860    0.3770 H   0  0  0  0  0  0  0  0  0  0  0  0
    2.0150   -0.8800   -0.4810 H   0  0  0  0  0  0  0  0  0  0  0  0
   -1.4810    1.1540    1.0520 H   0  0  0  0  0  0  0  0  0  0  0  0
    3.1330    1.3430   -0.6230 H   0  0  0  0  0  0  0  0  0  0  0  0
    4.5660    5.1250   -1.6600 H   0  0  0  0  0  0  0  0  0  0  0  0
    6.8350    7.5540    3.2270 H   0  0  0  0  0  0  0  0  0  0  0  0
    5.9300   12.1370   -0.0570 H   0  0  0  0  0  0  0  0  0  0  0  0
    7.8120    9.7730    2.4700 H   0  0  0  0  0  0  0  0  0  0  0  0
    6.3290   14.1490   -1.6350 H   0  0  0  0  0  0  0  0  0  0  0  0
    5.7390   13.5860   -4.1580 H   0  0  0  0  0  0  0  0  0  0  0  0
  1 30  1  0  0  0  0
  1  3  2  0  0  0  0
  2  1  1  0  0  0  0
  3 32  1  0  0  0  0
  4  2  2  0  0  0  0
  4  6  1  0  0  0  0
  5  3  1  0  0  0  0
  6  5  2  0  0  0  0
  7  6  1  0  0  0  0
  7  9  1  0  0  0  0
  8  7  2  0  0  0  0
  9 11  2  0  0  0  0
 10  8  1  0  0  0  0
 10 13  2  0  0  0  0
 11 14  1  0  0  0  0
 12  9  1  0  0  0  0
 12 15  2  0  0  0  0
 13 12  1  0  0  0  0
 15 14  1  0  0  0  0
 16 13  1  0  0  0  0
 16 18  1  0  0  0  0
 17 19  1  0  0  0  0
 17 16  2  0  0  0  0
 18 20  1  0  0  0  0
 19 22  1  1  0  0  0
 19 21  1  0  0  0  0
 20 23  2  0  0  0  0
 21 18  2  0  0  0  0
 21 24  1  0  0  0  0
 22 25  2  0  0  0  0
 23 35  1  0  0  0  0
 24 27  2  0  0  0  0
 25 36  1  0  0  0  0
 26 29  1  0  0  0  0
 26 22  1  0  0  0  0
 27 23  1  0  0  0  0
 27 37  1  0  0  0  0
 28 38  1  0  0  0  0
 28 25  1  0  0  0  0
 29 28  2  0  0  0  0
 31  2  1  0  0  0  0
 33  4  1  0  0  0  0
 34 10  1  0  0  0  0
 39 29  1  0  0  0  0
M  END
$$$$
scan_sander_basal/min_pdbs/min_pdb_C169_090.pdb
 OpenBabel09051718423D

 39 44  0  0  1  0  0  0  0  0999 V2000
    0.2050   -0.0450    0.3540 C   0  0  0  0  0  0  0  0  0  0  0  0
    1.5730    0.0110    0.0610 C   0  0  0  0  0  0  0  0  0  0  0  0
   -0.4920    1.1580    0.5410 C   0  0  0  0  0  0  0  0  0  0  0  0
    2.1840    1.2700   -0.0320 C   0  0  0  0  0  0  0  0  0  0  0  0
    0.1010    2.3620    0.4490 N   0  0  0  0  0  0  0  0  0  0  0  0
    1.4220    2.4520    0.1710 C   0  0  0  0  0  0  0  0  0  0  0  0
    2.0490    3.8250    0.0710 C   0  0  0  0  0  0  0  0  0  0  0  0
    3.1980    3.9000   -0.6480 N   0  0  0  0  0  0  0  0  0  0  0  0
    1.5320    5.0040    0.6850 C   0  0  0  0  0  0  0  0  0  0  0  0
    3.8390    5.0780   -0.7960 C   0  0  0  0  0  0  0  0  0  0  0  0
    0.4250    5.0880    1.4570 N   0  0  0  0  0  0  0  0  0  0  0  0
    2.1950    6.2140    0.5270 C   0  0  0  0  0  0  0  0  0  0  0  0
    3.3770    6.2750   -0.2270 C   0  0  0  0  0  0  0  0  0  0  0  0
    0.3110    6.6630    1.8870 S   0  0  0  0  0  0  0  0  0  0  0  0
    1.6270    7.2750    1.1340 N   0  0  0  0  0  0  0  0  0  0  0  0
    4.1080    7.5250   -0.4170 C   0  0  0  0  0  0  0  0  0  0  0  0
    3.7730    8.6020   -1.7780 B   0  0  0  0  0  0  0  0  0  0  0  0
    5.1600    8.0080    0.4580 C   0  0  0  0  0  0  0  0  0  0  0  0
    4.9720    9.7310   -1.1310 C   0  0  2  0  0  0  0  0  0  0  0  0
    5.6500    7.3080    1.5010 N   0  0  0  0  0  0  0  0  0  0  0  0
    5.6620    9.2480    0.0660 C   0  0  0  0  0  0  0  0  0  0  0  0
    5.2280   11.0230   -1.7230 C   0  0  0  0  0  0  0  0  0  0  0  0
    6.6780    7.8950    2.1510 C   0  0  0  0  0  0  0  0  0  0  0  0
    6.7120    9.8220    0.6890 N   0  0  0  0  0  0  0  0  0  0  0  0
    5.7670   12.0900   -1.0430 C   0  0  0  0  0  0  0  0  0  0  0  0
    4.8940   11.4120   -3.4060 S   0  0  0  0  0  0  0  0  0  0  0  0
    7.2090    9.1400    1.7450 C   0  0  0  0  0  0  0  0  0  0  0  0
    5.9270   13.2390   -1.8720 C   0  0  0  0  0  0  0  0  0  0  0  0
    5.5130   13.0430   -3.1670 C   0  0  0  0  0  0  0  0  0  0  0  0
   -0.3080   -0.9980    0.4360 H   0  0  0  0  0  0  0  0  0  0  0  0
    2.1480   -0.9000   -0.0910 H   0  0  0  0  0  0  0  0  0  0  0  0
   -1.5570    1.1590    0.7710 H   0  0  0  0  0  0  0  0  0  0  0  0
    3.2440    1.3330   -0.2550 H   0  0  0  0  0  0  0  0  0  0  0  0
    4.7550    5.0590   -1.3860 H   0  0  0  0  0  0  0  0  0  0  0  0
    7.0920    7.3560    3.0020 H   0  0  0  0  0  0  0  0  0  0  0  0
    6.0240   12.1000    0.0080 H   0  0  0  0  0  0  0  0  0  0  0  0
    8.0480    9.5930    2.2710 H   0  0  0  0  0  0  0  0  0  0  0  0
    6.3330   14.1760   -1.5060 H   0  0  0  0  0  0  0  0  0  0  0  0
    5.5230   13.7410   -3.9930 H   0  0  0  0  0  0  0  0  0  0  0  0
  1 30  1  0  0  0  0
  1  3  2  0  0  0  0
  2  1  1  0  0  0  0
  3 32  1  0  0  0  0
  4  2  2  0  0  0  0
  4  6  1  0  0  0  0
  5  3  1  0  0  0  0
  6  5  2  0  0  0  0
  7  6  1  0  0  0  0
  7  9  1  0  0  0  0
  8  7  2  0  0  0  0
  9 11  2  0  0  0  0
 10  8  1  0  0  0  0
 10 13  2  0  0  0  0
 11 14  1  0  0  0  0
 12  9  1  0  0  0  0
 12 15  2  0  0  0  0
 13 12  1  0  0  0  0
 15 14  1  0  0  0  0
 16 13  1  0  0  0  0
 16 18  1  0  0  0  0
 17 19  1  0  0  0  0
 17 16  2  0  0  0  0
 18 20  1  0  0  0  0
 19 22  1  1  0  0  0
 19 21  1  0  0  0  0
 20 23  2  0  0  0  0
 21 18  2  0  0  0  0
 21 24  1  0  0  0  0
 22 25  2  0  0  0  0
 23 35  1  0  0  0  0
 24 27  2  0  0  0  0
 25 36  1  0  0  0  0
 26 29  1  0  0  0  0
 26 22  1  0  0  0  0
 27 23  1  0  0  0  0
 27 37  1  0  0  0  0
 28 38  1  0  0  0  0
 28 25  1  0  0  0  0
 29 28  2  0  0  0  0
 31  2  1  0  0  0  0
 33  4  1  0  0  0  0
 34 10  1  0  0  0  0
 39 29  1  0  0  0  0
M  END
$$$$
scan_sander_basal/min_pdbs/min_pdb_C169_105.pdb
 OpenBabel09051718423D

 39 44  0  0  1  0  0  0  0  0999 V2000
    0.2310   -0.0510    0.4140 C   0  0  0  0  0  0  0  0  0  0  0  0
    1.6260    0.0170    0.3130 C   0  0  0  0  0  0  0  0  0  0  0  0
   -0.5030    1.1440    0.4030 C   0  0  0  0  0  0  0  0  0  0  0  0
    2.2250    1.2810    0.2070 C   0  0  0  0  0  0  0  0  0  0  0  0
    0.0790    2.3520    0.3000 N   0  0  0  0  0  0  0  0  0  0  0  0
    1.4240    2.4550    0.2040 C   0  0  0  0  0  0  0  0  0  0  0  0
    2.0380    3.8320    0.0830 C   0  0  0  0  0  0  0  0  0  0  0  0
    3.2770    3.8810   -0.4700 N   0  0  0  0  0  0  0  0  0  0  0  0
    1.4220    5.0410    0.5210 C   0  0  0  0  0  0  0  0  0  0  0  0
    3.9150    5.0600   -0.6210 C   0  0  0  0  0  0  0  0  0  0  0  0
    0.2150    5.1560    1.1200 N   0  0  0  0  0  0  0  0  0  0  0  0
    2.0830    6.2520    0.3600 C   0  0  0  0  0  0  0  0  0  0  0  0
    3.3590    6.2860   -0.2220 C   0  0  0  0  0  0  0  0  0  0  0  0
    0.0170    6.7560    1.4020 S   0  0  0  0  0  0  0  0  0  0  0  0
    1.4180    7.3420    0.7950 N   0  0  0  0  0  0  0  0  0  0  0  0
    4.0920    7.5360   -0.4080 C   0  0  0  0  0  0  0  0  0  0  0  0
    3.6620    8.6840   -1.6830 B   0  0  0  0  0  0  0  0  0  0  0  0
    5.2200    7.9640    0.3990 C   0  0  0  0  0  0  0  0  0  0  0  0
    4.9310    9.7640   -1.0860 C   0  0  2  0  0  0  0  0  0  0  0  0
    5.7800    7.2100    1.3660 N   0  0  0  0  0  0  0  0  0  0  0  0
    5.7080    9.2150    0.0250 C   0  0  0  0  0  0  0  0  0  0  0  0
    5.1600   11.0790   -1.6380 C   0  0  0  0  0  0  0  0  0  0  0  0
    6.8670    7.7530    1.9570 C   0  0  0  0  0  0  0  0  0  0  0  0
    6.8140    9.7460    0.5870 N   0  0  0  0  0  0  0  0  0  0  0  0
    5.7720   12.1050   -0.9570 C   0  0  0  0  0  0  0  0  0  0  0  0
    4.6940   11.5500   -3.2670 S   0  0  0  0  0  0  0  0  0  0  0  0
    7.3830    9.0080    1.5660 C   0  0  0  0  0  0  0  0  0  0  0  0
    5.8830   13.2890   -1.7430 C   0  0  0  0  0  0  0  0  0  0  0  0
    5.3600   13.1600   -3.0070 C   0  0  0  0  0  0  0  0  0  0  0  0
   -0.2740   -1.0080    0.4990 H   0  0  0  0  0  0  0  0  0  0  0  0
    2.2300   -0.8870    0.3180 H   0  0  0  0  0  0  0  0  0  0  0  0
   -1.5900    1.1350    0.4790 H   0  0  0  0  0  0  0  0  0  0  0  0
    3.3050    1.3550    0.1310 H   0  0  0  0  0  0  0  0  0  0  0  0
    4.9070    5.0190   -1.0720 H   0  0  0  0  0  0  0  0  0  0  0  0
    7.3390    7.1690    2.7460 H   0  0  0  0  0  0  0  0  0  0  0  0
    6.1150   12.0630    0.0680 H   0  0  0  0  0  0  0  0  0  0  0  0
    8.2690    9.4260    2.0430 H   0  0  0  0  0  0  0  0  0  0  0  0
    6.3340   14.2020   -1.3690 H   0  0  0  0  0  0  0  0  0  0  0  0
    5.3140   13.8960   -3.7980 H   0  0  0  0  0  0  0  0  0  0  0  0
  1 30  1  0  0  0  0
  2 31  1  0  0  0  0
  2  1  2  0  0  0  0
  3  1  1  0  0  0  0
  3 32  1  0  0  0  0
  4  2  1  0  0  0  0
  5  3  2  0  0  0  0
  6  4  2  0  0  0  0
  6  5  1  0  0  0  0
  7  6  1  0  0  0  0
  7  9  1  0  0  0  0
  8  7  2  0  0  0  0
  9 11  2  0  0  0  0
 10  8  1  0  0  0  0
 10 13  2  0  0  0  0
 11 14  1  0  0  0  0
 12  9  1  0  0  0  0
 12 15  2  0  0  0  0
 13 12  1  0  0  0  0
 15 14  1  0  0  0  0
 16 13  1  0  0  0  0
 16 18  1  0  0  0  0
 17 19  1  0  0  0  0
 17 16  2  0  0  0  0
 18 20  1  0  0  0  0
 19 22  1  1  0  0  0
 19 21  1  0  0  0  0
 20 23  2  0  0  0  0
 21 18  2  0  0  0  0
 21 24  1  0  0  0  0
 22 25  2  0  0  0  0
 23 35  1  0  0  0  0
 24 27  2  0  0  0  0
 25 36  1  0  0  0  0
 26 29  1  0  0  0  0
 26 22  1  0  0  0  0
 27 23  1  0  0  0  0
 27 37  1  0  0  0  0
 28 38  1  0  0  0  0
 28 25  1  0  0  0  0
 29 28  2  0  0  0  0
 33  4  1  0  0  0  0
 34 10  1  0  0  0  0
 39 29  1  0  0  0  0
M  END
$$$$
scan_sander_basal/min_pdbs/min_pdb_C169_120.pdb
 OpenBabel09051718423D

 39 44  0  0  1  0  0  0  0  0999 V2000
    0.2550   -0.0580    0.4750 C   0  0  0  0  0  0  0  0  0  0  0  0
    1.6500    0.0400    0.5650 C   0  0  0  0  0  0  0  0  0  0  0  0
   -0.4900    1.1110    0.2690 C   0  0  0  0  0  0  0  0  0  0  0  0
    2.2360    1.3090    0.4460 C   0  0  0  0  0  0  0  0  0  0  0  0
    0.0800    2.3240    0.1540 N   0  0  0  0  0  0  0  0  0  0  0  0
    1.4240    2.4570    0.2400 C   0  0  0  0  0  0  0  0  0  0  0  0
    2.0260    3.8370    0.1000 C   0  0  0  0  0  0  0  0  0  0  0  0
    3.3290    3.8790   -0.2770 N   0  0  0  0  0  0  0  0  0  0  0  0
    1.3330    5.0590    0.3520 C   0  0  0  0  0  0  0  0  0  0  0  0
    3.9620    5.0610   -0.4290 C   0  0  0  0  0  0  0  0  0  0  0  0
    0.0540    5.1820    0.7700 N   0  0  0  0  0  0  0  0  0  0  0  0
    1.9890    6.2720    0.1900 C   0  0  0  0  0  0  0  0  0  0  0  0
    3.3350    6.3000   -0.2120 C   0  0  0  0  0  0  0  0  0  0  0  0
   -0.2110    6.7920    0.9010 S   0  0  0  0  0  0  0  0  0  0  0  0
    1.2500    7.3710    0.4480 N   0  0  0  0  0  0  0  0  0  0  0  0
    4.0710    7.5520   -0.3920 C   0  0  2  0  0  0  0  0  0  0  0  0
    3.5560    8.7700   -1.5680 B   0  0  0  0  0  0  0  0  0  0  0  0
    5.2710    7.9270    0.3370 C   0  0  0  0  0  0  0  0  0  0  0  0
    4.8920    9.8000   -1.0350 C   0  0  0  0  0  0  0  0  0  0  0  0
    5.8930    7.1250    1.2240 N   0  0  0  0  0  0  0  0  0  0  0  0
    5.7490    9.1870   -0.0200 C   0  0  0  0  0  0  0  0  0  0  0  0
    5.1010   11.1350   -1.5450 C   0  0  0  0  0  0  0  0  0  0  0  0
    7.0340    7.6250    1.7480 C   0  0  0  0  0  0  0  0  0  0  0  0
    6.9060    9.6770    0.4730 N   0  0  0  0  0  0  0  0  0  0  0  0
    5.7890   12.1190   -0.8750 C   0  0  0  0  0  0  0  0  0  0  0  0
    4.5080   11.6880   -3.1060 S   0  0  0  0  0  0  0  0  0  0  0  0
    7.5390    8.8890    1.3700 C   0  0  0  0  0  0  0  0  0  0  0  0
    5.8560   13.3350   -1.6150 C   0  0  0  0  0  0  0  0  0  0  0  0
    5.2250   13.2720   -2.8330 C   0  0  0  0  0  0  0  0  0  0  0  0
   -0.2400   -1.0200    0.5620 H   0  0  0  0  0  0  0  0  0  0  0  0
    2.2620   -0.8430    0.7240 H   0  0  0  0  0  0  0  0  0  0  0  0
   -1.5770    1.0770    0.1920 H   0  0  0  0  0  0  0  0  0  0  0  0
    3.3150    1.4070    0.5160 H   0  0  0  0  0  0  0  0  0  0  0  0
    5.0070    5.0120   -0.7340 H   0  0  0  0  0  0  0  0  0  0  0  0
    7.5570    7.0010    2.4710 H   0  0  0  0  0  0  0  0  0  0  0  0
    6.2160   12.0250    0.1140 H   0  0  0  0  0  0  0  0  0  0  0  0
    8.4680    9.2730    1.7910 H   0  0  0  0  0  0  0  0  0  0  0  0
    6.3560   14.2240   -1.2420 H   0  0  0  0  0  0  0  0  0  0  0  0
    5.1270   14.0440   -3.5850 H   0  0  0  0  0  0  0  0  0  0  0  0
  1 30  1  0  0  0  0
  1  2  1  0  0  0  0
  2 31  1  0  0  0  0
  3  1  2  0  0  0  0
  4 33  1  0  0  0  0
  4  2  2  0  0  0  0
  5  6  2  0  0  0  0
  5  3  1  0  0  0  0
  6  4  1  0  0  0  0
  7  6  1  0  0  0  0
  7  9  1  0  0  0  0
  8  7  2  0  0  0  0
  9 11  2  0  0  0  0
 10  8  1  0  0  0  0
 10 13  2  0  0  0  0
 11 14  1  0  0  0  0
 12  9  1  0  0  0  0
 12 15  2  0  0  0  0
 13 12  1  0  0  0  0
 15 14  1  0  0  0  0
 16 13  1  6  0  0  0
 16 18  1  0  0  0  0
 17 19  2  0  0  0  0
 17 16  1  0  0  0  0
 18 20  1  0  0  0  0
 19 21  1  0  0  0  0
 20 23  2  0  0  0  0
 21 18  2  0  0  0  0
 21 24  1  0  0  0  0
 22 19  1  0  0  0  0
 22 25  2  0  0  0  0
 23 35  1  0  0  0  0
 24 27  2  0  0  0  0
 25 36  1  0  0  0  0
 26 29  1  0  0  0  0
 26 22  1  0  0  0  0
 27 23  1  0  0  0  0
 27 37  1  0  0  0  0
 28 38  1  0  0  0  0
 28 25  1  0  0  0  0
 29 28  2  0  0  0  0
 32  3  1  0  0  0  0
 34 10  1  0  0  0  0
 39 29  1  0  0  0  0
M  END
$$$$
scan_sander_basal/min_pdbs/min_pdb_C169_135.pdb
 OpenBabel09051718423D

 39 44  0  0  1  0  0  0  0  0999 V2000
    0.2750   -0.0710    0.5290 C   0  0  0  0  0  0  0  0  0  0  0  0
    1.6420    0.0720    0.7990 C   0  0  0  0  0  0  0  0  0  0  0  0
   -0.4570    1.0600    0.1420 C   0  0  0  0  0  0  0  0  0  0  0  0
    2.2150    1.3460    0.6700 C   0  0  0  0  0  0  0  0  0  0  0  0
    0.1010    2.2780    0.0200 N   0  0  0  0  0  0  0  0  0  0  0  0
    1.4180    2.4540    0.2760 C   0  0  0  0  0  0  0  0  0  0  0  0
    2.0070    3.8380    0.1210 C   0  0  0  0  0  0  0  0  0  0  0  0
    3.3480    3.8910   -0.0780 N   0  0  0  0  0  0  0  0  0  0  0  0
    1.2670    5.0540    0.1900 C   0  0  0  0  0  0  0  0  0  0  0  0
    3.9740    5.0760   -0.2280 C   0  0  0  0  0  0  0  0  0  0  0  0
   -0.0590    5.1670    0.4290 N   0  0  0  0  0  0  0  0  0  0  0  0
    1.9160    6.2730    0.0290 C   0  0  0  0  0  0  0  0  0  0  0  0
    3.3060    6.3140   -0.1920 C   0  0  0  0  0  0  0  0  0  0  0  0
   -0.3730    6.7710    0.4180 S   0  0  0  0  0  0  0  0  0  0  0  0
    1.1230    7.3620    0.1230 N   0  0  0  0  0  0  0  0  0  0  0  0
    4.0470    7.5720   -0.3610 C   0  0  2  0  0  0  0  0  0  0  0  0
    3.4560    8.8660   -1.4190 B   0  0  0  0  0  0  0  0  0  0  0  0
    5.3170    7.8990    0.2750 C   0  0  0  0  0  0  0  0  0  0  0  0
    4.8600    9.8420   -0.9730 C   0  0  0  0  0  0  0  0  0  0  0  0
    5.9930    7.0620    1.0890 N   0  0  0  0  0  0  0  0  0  0  0  0
    5.7880    9.1670   -0.0680 C   0  0  0  0  0  0  0  0  0  0  0  0
    5.0530   11.1920   -1.4480 C   0  0  0  0  0  0  0  0  0  0  0  0
    7.1790    7.5250    1.5390 C   0  0  0  0  0  0  0  0  0  0  0  0
    6.9870    9.6220    0.3530 N   0  0  0  0  0  0  0  0  0  0  0  0
    5.8250   12.1340   -0.8090 C   0  0  0  0  0  0  0  0  0  0  0  0
    4.3320   11.8190   -2.9250 S   0  0  0  0  0  0  0  0  0  0  0  0
    7.6760    8.7930    1.1670 C   0  0  0  0  0  0  0  0  0  0  0  0
    5.8520   13.3780   -1.5060 C   0  0  0  0  0  0  0  0  0  0  0  0
    5.1100   13.3760   -2.6610 C   0  0  0  0  0  0  0  0  0  0  0  0
   -0.2100   -1.0390    0.6170 H   0  0  0  0  0  0  0  0  0  0  0  0
    2.2430   -0.7810    1.1020 H   0  0  0  0  0  0  0  0  0  0  0  0
   -1.5220    0.9910   -0.0770 H   0  0  0  0  0  0  0  0  0  0  0  0
    3.2720    1.4780    0.8780 H   0  0  0  0  0  0  0  0  0  0  0  0
    5.0490    5.0270   -0.3960 H   0  0  0  0  0  0  0  0  0  0  0  0
    7.7450    6.8680    2.1980 H   0  0  0  0  0  0  0  0  0  0  0  0
    6.3400   11.9930    0.1320 H   0  0  0  0  0  0  0  0  0  0  0  0
    8.6410    9.1490    1.5270 H   0  0  0  0  0  0  0  0  0  0  0  0
    6.4060   14.2400   -1.1480 H   0  0  0  0  0  0  0  0  0  0  0  0
    4.9610   14.1800   -3.3700 H   0  0  0  0  0  0  0  0  0  0  0  0
  1 30  1  0  0  0  0
  1  2  2  0  0  0  0
  2 31  1  0  0  0  0
  3  1  1  0  0  0  0
  4  2  1  0  0  0  0
  4 33  1  0  0  0  0
  5  3  2  0  0  0  0
  5  6  1  0  0  0  0
  6  4  2  0  0  0  0
  7  9  1  0  0  0  0
  7  6  1  0  0  0  0
  8  7  2  0  0  0  0
  9 11  2  0  0  0  0
 10 13  2  0  0  0  0
 10  8  1  0  0  0  0
 12 15  2  0  0  0  0
 12  9  1  0  0  0  0
 13 12  1  0  0  0  0
 14 11  1  0  0  0  0
 15 14  1  0  0  0  0
 16 13  1  6  0  0  0
 16 18  1  0  0  0  0
 17 19  2  0  0  0  0
 17 16  1  0  0  0  0
 18 20  1  0  0  0  0
 19 21  1  0  0  0  0
 20 23  2  0  0  0  0
 21 18  2  0  0  0  0
 21 24  1  0  0  0  0
 22 19  1  0  0  0  0
 22 25  2  0  0  0  0
 23 35  1  0  0  0  0
 24 27  2  0  0  0  0
 25 36  1  0  0  0  0
 26 29  1  0  0  0  0
 26 22  1  0  0  0  0
 27 37  1  0  0  0  0
 27 23  1  0  0  0  0
 28 38  1  0  0  0  0
 28 25  1  0  0  0  0
 29 28  2  0  0  0  0
 32  3  1  0  0  0  0
 34 10  1  0  0  0  0
 39 29  1  0  0  0  0
M  END
$$$$
scan_sander_basal/min_pdbs/min_pdb_C169_150.pdb
 OpenBabel09051718423D

 39 44  0  0  1  0  0  0  0  0999 V2000
    0.2850   -0.0920    0.5570 C   0  0  0  0  0  0  0  0  0  0  0  0
    1.6010    0.1020    0.9930 C   0  0  0  0  0  0  0  0  0  0  0  0
   -0.4110    0.9960    0.0130 C   0  0  0  0  0  0  0  0  0  0  0  0
    2.1630    1.3810    0.8640 C   0  0  0  0  0  0  0  0  0  0  0  0
    0.1350    2.2200   -0.1080 N   0  0  0  0  0  0  0  0  0  0  0  0
    1.4040    2.4440    0.3050 C   0  0  0  0  0  0  0  0  0  0  0  0
    1.9840    3.8320    0.1460 C   0  0  0  0  0  0  0  0  0  0  0  0
    3.3350    3.9080    0.1190 N   0  0  0  0  0  0  0  0  0  0  0  0
    1.2230    5.0310    0.0460 C   0  0  0  0  0  0  0  0  0  0  0  0
    3.9560    5.0970   -0.0170 C   0  0  0  0  0  0  0  0  0  0  0  0
   -0.1250    5.1170    0.1140 N   0  0  0  0  0  0  0  0  0  0  0  0
    1.8660    6.2570   -0.1040 C   0  0  0  0  0  0  0  0  0  0  0  0
    3.2780    6.3270   -0.1470 C   0  0  0  0  0  0  0  0  0  0  0  0
   -0.4730    6.7060   -0.0240 S   0  0  0  0  0  0  0  0  0  0  0  0
    1.0350    7.3210   -0.1600 N   0  0  0  0  0  0  0  0  0  0  0  0
    4.0260    7.5960   -0.2960 C   0  0  2  0  0  0  0  0  0  0  0  0
    3.3620    8.9730   -1.2040 B   0  0  0  0  0  0  0  0  0  0  0  0
    5.3600    7.8850    0.2340 C   0  0  0  0  0  0  0  0  0  0  0  0
    4.8340    9.8910   -0.8870 C   0  0  0  0  0  0  0  0  0  0  0  0
    6.0850    7.0310    0.9860 N   0  0  0  0  0  0  0  0  0  0  0  0
    5.8250    9.1590   -0.1040 C   0  0  0  0  0  0  0  0  0  0  0  0
    5.0180   11.2480   -1.3470 C   0  0  0  0  0  0  0  0  0  0  0  0
    7.3090    7.4650    1.3570 C   0  0  0  0  0  0  0  0  0  0  0  0
    7.0580    9.5900    0.2390 N   0  0  0  0  0  0  0  0  0  0  0  0
    5.8810   12.1530   -0.7760 C   0  0  0  0  0  0  0  0  0  0  0  0
    4.1600   11.9320   -2.7230 S   0  0  0  0  0  0  0  0  0  0  0  0
    7.7960    8.7330    0.9760 C   0  0  0  0  0  0  0  0  0  0  0  0
    5.8710   13.4120   -1.4440 C   0  0  0  0  0  0  0  0  0  0  0  0
    5.0090   13.4600   -2.5120 C   0  0  0  0  0  0  0  0  0  0  0  0
   -0.1900   -1.0650    0.6380 H   0  0  0  0  0  0  0  0  0  0  0  0
    2.1740   -0.7170    1.4200 H   0  0  0  0  0  0  0  0  0  0  0  0
   -1.4370    0.8870   -0.3390 H   0  0  0  0  0  0  0  0  0  0  0  0
    3.1810    1.5520    1.1990 H   0  0  0  0  0  0  0  0  0  0  0  0
    5.0400    5.0410   -0.0660 H   0  0  0  0  0  0  0  0  0  0  0  0
    7.9100    6.7860    1.9580 H   0  0  0  0  0  0  0  0  0  0  0  0
    6.4890   11.9770    0.1010 H   0  0  0  0  0  0  0  0  0  0  0  0
    8.7900    9.0680    1.2700 H   0  0  0  0  0  0  0  0  0  0  0  0
    6.4850   14.2500   -1.1300 H   0  0  0  0  0  0  0  0  0  0  0  0
    4.8090   14.2840   -3.1840 H   0  0  0  0  0  0  0  0  0  0  0  0
  1 30  1  0  0  0  0
  1  2  2  0  0  0  0
  2 31  1  0  0  0  0
  3  1  1  0  0  0  0
  4  2  1  0  0  0  0
  4 33  1  0  0  0  0
  5  3  2  0  0  0  0
  5  6  1  0  0  0  0
  6  4  2  0  0  0  0
  7  6  1  0  0  0  0
  8  7  2  0  0  0  0
  9 11  2  0  0  0  0
  9  7  1  0  0  0  0
 10  8  1  0  0  0  0
 12  9  1  0  0  0  0
 13 12  1  0  0  0  0
 13 10  2  0  0  0  0
 14 11  1  0  0  0  0
 15 12  2  0  0  0  0
 15 14  1  0  0  0  0
 16 13  1  6  0  0  0
 16 18  1  0  0  0  0
 17 19  2  0  0  0  0
 17 16  1  0  0  0  0
 18 20  1  0  0  0  0
 19 21  1  0  0  0  0
 20 23  2  0  0  0  0
 21 18  2  0  0  0  0
 21 24  1  0  0  0  0
 22 19  1  0  0  0  0
 22 25  2  0  0  0  0
 23 35  1  0  0  0  0
 24 27  2  0  0  0  0
 25 36  1  0  0  0  0
 26 29  1  0  0  0  0
 26 22  1  0  0  0  0
 27 37  1  0  0  0  0
 27 23  1  0  0  0  0
 28 38  1  0  0  0  0
 28 25  1  0  0  0  0
 29 28  2  0  0  0  0
 32  3  1  0  0  0  0
 34 10  1  0  0  0  0
 39 29  1  0  0  0  0
M  END
$$$$
scan_sander_basal/min_pdbs/min_pdb_C169_165.pdb
 OpenBabel09051718423D

 39 44  0  0  1  0  0  0  0  0999 V2000
    0.2630   -0.1010    0.6230 C   0  0  0  0  0  0  0  0  0  0  0  0
    1.4990    0.1530    1.2310 C   0  0  0  0  0  0  0  0  0  0  0  0
   -0.3560    0.9290   -0.0990 C   0  0  0  0  0  0  0  0  0  0  0  0
    2.0600    1.4300    1.0880 C   0  0  0  0  0  0  0  0  0  0  0  0
    0.1900    2.1510   -0.2320 N   0  0  0  0  0  0  0  0  0  0  0  0
    1.3810    2.4330    0.3440 C   0  0  0  0  0  0  0  0  0  0  0  0
    1.9660    3.8170    0.1650 C   0  0  0  0  0  0  0  0  0  0  0  0
    3.3030    3.9180    0.3310 N   0  0  0  0  0  0  0  0  0  0  0  0
    1.2220    4.9900   -0.1360 C   0  0  0  0  0  0  0  0  0  0  0  0
    3.9280    5.1040    0.1960 C   0  0  0  0  0  0  0  0  0  0  0  0
   -0.1220    5.0460   -0.2730 N   0  0  0  0  0  0  0  0  0  0  0  0
    1.8700    6.2160   -0.2830 C   0  0  0  0  0  0  0  0  0  0  0  0
    3.2790    6.3190   -0.1260 C   0  0  0  0  0  0  0  0  0  0  0  0
   -0.4710    6.6080   -0.5840 S   0  0  0  0  0  0  0  0  0  0  0  0
    1.0330    7.2450   -0.5410 N   0  0  0  0  0  0  0  0  0  0  0  0
    4.0390    7.5970   -0.2600 C   0  0  2  0  0  0  0  0  0  0  0  0
    3.3280    9.0350   -1.0370 B   0  0  0  0  0  0  0  0  0  0  0  0
    5.4200    7.8700    0.1740 C   0  0  0  0  0  0  0  0  0  0  0  0
    4.8250    9.9290   -0.8130 C   0  0  0  0  0  0  0  0  0  0  0  0
    6.2060    6.9980    0.8400 N   0  0  0  0  0  0  0  0  0  0  0  0
    5.8660    9.1570   -0.1470 C   0  0  0  0  0  0  0  0  0  0  0  0
    4.9830   11.3020   -1.2350 C   0  0  0  0  0  0  0  0  0  0  0  0
    7.4550    7.4170    1.1320 C   0  0  0  0  0  0  0  0  0  0  0  0
    7.1230    9.5760    0.1170 N   0  0  0  0  0  0  0  0  0  0  0  0
    5.8990   12.1810   -0.7060 C   0  0  0  0  0  0  0  0  0  0  0  0
    4.0170   12.0430   -2.5050 S   0  0  0  0  0  0  0  0  0  0  0  0
    7.9160    8.6950    0.7610 C   0  0  0  0  0  0  0  0  0  0  0  0
    5.8430   13.4640   -1.3230 C   0  0  0  0  0  0  0  0  0  0  0  0
    4.8930   13.5570   -2.3110 C   0  0  0  0  0  0  0  0  0  0  0  0
   -0.2090   -1.0750    0.7080 H   0  0  0  0  0  0  0  0  0  0  0  0
    2.0100   -0.6200    1.7990 H   0  0  0  0  0  0  0  0  0  0  0  0
   -1.3180    0.7720   -0.5880 H   0  0  0  0  0  0  0  0  0  0  0  0
    3.0160    1.6470    1.5540 H   0  0  0  0  0  0  0  0  0  0  0  0
    5.0040    5.0350    0.3050 H   0  0  0  0  0  0  0  0  0  0  0  0
    8.0980    6.7150    1.6620 H   0  0  0  0  0  0  0  0  0  0  0  0
    6.5790   11.9690    0.1080 H   0  0  0  0  0  0  0  0  0  0  0  0
    8.9300    9.0210    0.9900 H   0  0  0  0  0  0  0  0  0  0  0  0
    6.4890   14.2860   -1.0320 H   0  0  0  0  0  0  0  0  0  0  0  0
    4.6440   14.4070   -2.9320 H   0  0  0  0  0  0  0  0  0  0  0  0
  1 30  1  0  0  0  0
  1  2  2  0  0  0  0
  2 31  1  0  0  0  0
  3  1  1  0  0  0  0
  4  2  1  0  0  0  0
  4 33  1  0  0  0  0
  5  3  2  0  0  0  0
  5  6  1  0  0  0  0
  6  4  2  0  0  0  0
  7  8  2  0  0  0  0
  7  6  1  0  0  0  0
  9  7  1  0  0  0  0
 10 34  1  0  0  0  0
 10  8  1  0  0  0  0
 11  9  2  0  0  0  0
 12  9  1  0  0  0  0
 12 13  1  0  0  0  0
 13 10  2  0  0  0  0
 14 15  1  0  0  0  0
 14 11  1  0  0  0  0
 15 12  2  0  0  0  0
 16 13  1  6  0  0  0
 16 18  1  0  0  0  0
 17 19  2  0  0  0  0
 17 16  1  0  0  0  0
 18 20  2  0  0  0  0
 19 21  1  0  0  0  0
 20 23  1  0  0  0  0
 21 24  2  0  0  0  0
 21 18  1  0  0  0  0
 22 19  1  0  0  0  0
 22 25  2  0  0  0  0
 23 35  1  0  0  0  0
 24 27  1  0  0  0  0
 25 36  1  0  0  0  0
 26 29  1  0  0  0  0
 26 22  1  0  0  0  0
 27 37  1  0  0  0  0
 27 23  2  0  0  0  0
 28 38  1  0  0  0  0
 28 25  1  0  0  0  0
 29 28  2  0  0  0  0
 32  3  1  0  0  0  0
 39 29  1  0  0  0  0
M  END
$$$$
scan_sander_basal/min_pdbs/min_pdb_C169_180.pdb
 OpenBabel09051718423D

 39 44  0  0  1  0  0  0  0  0999 V2000
    0.2210   -0.0670    0.8050 C   0  0  0  0  0  0  0  0  0  0  0  0
    1.3040    0.3040    1.6120 C   0  0  0  0  0  0  0  0  0  0  0  0
   -0.2430    0.8420   -0.1570 C   0  0  0  0  0  0  0  0  0  0  0  0
    1.8750    1.5710    1.4200 C   0  0  0  0  0  0  0  0  0  0  0  0
    0.3120    2.0540   -0.3360 N   0  0  0  0  0  0  0  0  0  0  0  0
    1.3580    2.4470    0.4270 C   0  0  0  0  0  0  0  0  0  0  0  0
    1.9600    3.8140    0.1880 C   0  0  0  0  0  0  0  0  0  0  0  0
    3.2330    3.9800    0.6050 N   0  0  0  0  0  0  0  0  0  0  0  0
    1.2890    4.9150   -0.4110 C   0  0  0  0  0  0  0  0  0  0  0  0
    3.8730    5.1520    0.4270 C   0  0  0  0  0  0  0  0  0  0  0  0
    0.0010    4.9070   -0.8210 N   0  0  0  0  0  0  0  0  0  0  0  0
    1.9530    6.1280   -0.5970 C   0  0  0  0  0  0  0  0  0  0  0  0
    3.3080    6.2940   -0.1920 C   0  0  0  0  0  0  0  0  0  0  0  0
   -0.2820    6.3930   -1.4250 S   0  0  0  0  0  0  0  0  0  0  0  0
    1.1810    7.0760   -1.1760 N   0  0  0  0  0  0  0  0  0  0  0  0
    4.0910    7.5590   -0.3750 C   0  0  2  0  0  0  0  0  0  0  0  0
    3.3810    9.0000   -1.1540 B   0  0  0  0  0  0  0  0  0  0  0  0
    5.4900    7.8280    0.0090 C   0  0  0  0  0  0  0  0  0  0  0  0
    4.8330    9.9330   -0.8260 C   0  0  0  0  0  0  0  0  0  0  0  0
    6.3560    6.9050    0.4800 N   0  0  0  0  0  0  0  0  0  0  0  0
    5.9010    9.1450   -0.2330 C   0  0  0  0  0  0  0  0  0  0  0  0
    4.9380   11.3460   -1.1010 C   0  0  0  0  0  0  0  0  0  0  0  0
    7.6210    7.3180    0.7080 C   0  0  0  0  0  0  0  0  0  0  0  0
    7.1720    9.5600   -0.0450 N   0  0  0  0  0  0  0  0  0  0  0  0
    5.8170   12.1940   -0.4690 C   0  0  0  0  0  0  0  0  0  0  0  0
    3.9560   12.1830   -2.2970 S   0  0  0  0  0  0  0  0  0  0  0  0
    8.0280    8.6390    0.4420 C   0  0  0  0  0  0  0  0  0  0  0  0
    5.7220   13.5330   -0.9490 C   0  0  0  0  0  0  0  0  0  0  0  0
    4.7790   13.6970   -1.9340 C   0  0  0  0  0  0  0  0  0  0  0  0
   -0.2510   -1.0370    0.9200 H   0  0  0  0  0  0  0  0  0  0  0  0
    1.6940   -0.3730    2.3690 H   0  0  0  0  0  0  0  0  0  0  0  0
   -1.0820    0.5920   -0.8050 H   0  0  0  0  0  0  0  0  0  0  0  0
    2.7140    1.8770    2.0370 H   0  0  0  0  0  0  0  0  0  0  0  0
    4.8810    5.1360    0.8160 H   0  0  0  0  0  0  0  0  0  0  0  0
    8.3190    6.5770    1.0950 H   0  0  0  0  0  0  0  0  0  0  0  0
    6.4980   11.9150    0.3240 H   0  0  0  0  0  0  0  0  0  0  0  0
    9.0550    8.9610    0.6140 H   0  0  0  0  0  0  0  0  0  0  0  0
    6.3380   14.3400   -0.5650 H   0  0  0  0  0  0  0  0  0  0  0  0
    4.5060   14.5990   -2.4650 H   0  0  0  0  0  0  0  0  0  0  0  0
  1 30  1  0  0  0  0
  1  2  2  0  0  0  0
  2 31  1  0  0  0  0
  3  1  1  0  0  0  0
  4  2  1  0  0  0  0
  4 33  1  0  0  0  0
  5  3  2  0  0  0  0
  5  6  1  0  0  0  0
  6  4  2  0  0  0  0
  7  6  1  0  0  0  0
  7  8  2  0  0  0  0
  9  7  1  0  0  0  0
 10  8  1  0  0  0  0
 10 34  1  0  0  0  0
 11  9  2  0  0  0  0
 12  9  1  0  0  0  0
 12 13  1  0  0  0  0
 13 10  2  0  0  0  0
 14 15  1  0  0  0  0
 14 11  1  0  0  0  0
 15 12  2  0  0  0  0
 16 13  1  6  0  0  0
 16 18  1  0  0  0  0
 17 19  2  0  0  0  0
 17 16  1  0  0  0  0
 18 20  2  0  0  0  0
 19 21  1  0  0  0  0
 20 23  1  0  0  0  0
 21 24  2  0  0  0  0
 21 18  1  0  0  0  0
 22 19  1  0  0  0  0
 22 25  2  0  0  0  0
 23 35  1  0  0  0  0
 24 27  1  0  0  0  0
 25 36  1  0  0  0  0
 26 29  1  0  0  0  0
 26 22  1  0  0  0  0
 27 37  1  0  0  0  0
 27 23  2  0  0  0  0
 28 38  1  0  0  0  0
 28 25  1  0  0  0  0
 29 28  2  0  0  0  0
 32  3  1  0  0  0  0
 39 29  1  0  0  0  0
M  END
$$$$
scan_sander_basal/min_pdbs/min_pdb_C169_195.pdb
 OpenBabel09051718423D

 39 44  0  0  1  0  0  0  0  0999 V2000
    0.2200    0.0150    1.0340 C   0  0  0  0  0  0  0  0  0  0  0  0
    1.1420    0.5370    1.9490 C   0  0  0  0  0  0  0  0  0  0  0  0
   -0.0840    0.7600   -0.1140 C   0  0  0  0  0  0  0  0  0  0  0  0
    1.7200    1.7850    1.6730 C   0  0  0  0  0  0  0  0  0  0  0  0
    0.4760    1.9560   -0.3710 N   0  0  0  0  0  0  0  0  0  0  0  0
    1.3680    2.4920    0.4920 C   0  0  0  0  0  0  0  0  0  0  0  0
    1.9810    3.8360    0.1630 C   0  0  0  0  0  0  0  0  0  0  0  0
    3.1620    4.1080    0.7620 N   0  0  0  0  0  0  0  0  0  0  0  0
    1.4040    4.8140   -0.6940 C   0  0  0  0  0  0  0  0  0  0  0  0
    3.8010    5.2710    0.5300 C   0  0  0  0  0  0  0  0  0  0  0  0
    0.2160    4.6940   -1.3270 N   0  0  0  0  0  0  0  0  0  0  0  0
    2.0620    6.0210   -0.9260 C   0  0  0  0  0  0  0  0  0  0  0  0
    3.3140    6.2940   -0.3160 C   0  0  0  0  0  0  0  0  0  0  0  0
    0.0300    6.0690   -2.1850 S   0  0  0  0  0  0  0  0  0  0  0  0
    1.4070    6.8460   -1.7730 N   0  0  0  0  0  0  0  0  0  0  0  0
    4.0880    7.5500   -0.5220 C   0  0  2  0  0  0  0  0  0  0  0  0
    3.3650    9.0100   -1.2440 B   0  0  0  0  0  0  0  0  0  0  0  0
    5.5000    7.7800   -0.1850 C   0  0  0  0  0  0  0  0  0  0  0  0
    4.8030    9.9340   -0.8270 C   0  0  0  0  0  0  0  0  0  0  0  0
    6.3860    6.8050    0.1140 N   0  0  0  0  0  0  0  0  0  0  0  0
    5.8990    9.1120   -0.3350 C   0  0  0  0  0  0  0  0  0  0  0  0
    4.8830   11.3700   -0.9420 C   0  0  0  0  0  0  0  0  0  0  0  0
    7.6660    7.1960    0.2920 C   0  0  0  0  0  0  0  0  0  0  0  0
    7.1830    9.5070   -0.2010 N   0  0  0  0  0  0  0  0  0  0  0  0
    5.7590   12.1490   -0.2220 C   0  0  0  0  0  0  0  0  0  0  0  0
    3.8790   12.3270   -2.0230 S   0  0  0  0  0  0  0  0  0  0  0  0
    8.0630    8.5400    0.1360 C   0  0  0  0  0  0  0  0  0  0  0  0
    5.6390   13.5340   -0.5370 C   0  0  0  0  0  0  0  0  0  0  0  0
    4.6820   13.8000   -1.4860 C   0  0  0  0  0  0  0  0  0  0  0  0
   -0.2520   -0.9470    1.2080 H   0  0  0  0  0  0  0  0  0  0  0  0
    1.4050   -0.0110    2.8510 H   0  0  0  0  0  0  0  0  0  0  0  0
   -0.7960    0.3890   -0.8510 H   0  0  0  0  0  0  0  0  0  0  0  0
    2.4360    2.2070    2.3720 H   0  0  0  0  0  0  0  0  0  0  0  0
    4.7190    5.3870    1.0970 H   0  0  0  0  0  0  0  0  0  0  0  0
    8.3860    6.4200    0.5470 H   0  0  0  0  0  0  0  0  0  0  0  0
    6.4520   11.7840    0.5250 H   0  0  0  0  0  0  0  0  0  0  0  0
    9.1010    8.8420    0.2660 H   0  0  0  0  0  0  0  0  0  0  0  0
    6.2470   14.2990   -0.0640 H   0  0  0  0  0  0  0  0  0  0  0  0
    4.3890   14.7550   -1.9020 H   0  0  0  0  0  0  0  0  0  0  0  0
  1 30  1  0  0  0  0
  1  2  2  0  0  0  0
  2 31  1  0  0  0  0
  3  1  1  0  0  0  0
  4  2  1  0  0  0  0
  4 33  1  0  0  0  0
  5  3  2  0  0  0  0
  5  6  1  0  0  0  0
  6  4  2  0  0  0  0
  7  6  1  0  0  0  0
  7  8  2  0  0  0  0
  9  7  1  0  0  0  0
 10  8  1  0  0  0  0
 10 34  1  0  0  0  0
 11  9  2  0  0  0  0
 12  9  1  0  0  0  0
 12 13  1  0  0  0  0
 13 10  2  0  0  0  0
 14 15  1  0  0  0  0
 14 11  1  0  0  0  0
 15 12  2  0  0  0  0
 16 13  1  6  0  0  0
 16 18  1  0  0  0  0
 17 19  2  0  0  0  0
 17 16  1  0  0  0  0
 18 20  2  0  0  0  0
 19 21  1  0  0  0  0
 20 23  1  0  0  0  0
 21 24  2  0  0  0  0
 21 18  1  0  0  0  0
 22 19  1  0  0  0  0
 22 25  2  0  0  0  0
 23 35  1  0  0  0  0
 24 27  1  0  0  0  0
 25 36  1  0  0  0  0
 26 29  1  0  0  0  0
 26 22  1  0  0  0  0
 27 37  1  0  0  0  0
 27 23  2  0  0  0  0
 28 25  1  0  0  0  0
 28 38  1  0  0  0  0
 29 28  2  0  0  0  0
 32  3  1  0  0  0  0
 39 29  1  0  0  0  0
M  END
$$$$
scan_sander_basal/min_pdbs/min_pdb_C169_210.pdb
 OpenBabel09051718423D

 39 44  0  0  1  0  0  0  0  0999 V2000
    0.2530    0.0190    1.0500 C   0  0  0  0  0  0  0  0  0  0  0  0
    1.0260    0.6320    2.0440 C   0  0  0  0  0  0  0  0  0  0  0  0
    0.0850    0.6800   -0.1750 C   0  0  0  0  0  0  0  0  0  0  0  0
    1.5970    1.8820    1.7670 C   0  0  0  0  0  0  0  0  0  0  0  0
    0.6380    1.8790   -0.4330 N   0  0  0  0  0  0  0  0  0  0  0  0
    1.3880    2.5020    0.5050 C   0  0  0  0  0  0  0  0  0  0  0  0
    1.9980    3.8460    0.1730 C   0  0  0  0  0  0  0  0  0  0  0  0
    3.0790    4.2010    0.9070 N   0  0  0  0  0  0  0  0  0  0  0  0
    1.5090    4.7450   -0.8180 C   0  0  0  0  0  0  0  0  0  0  0  0
    3.7040    5.3750    0.6870 C   0  0  0  0  0  0  0  0  0  0  0  0
    0.4260    4.5420   -1.6010 N   0  0  0  0  0  0  0  0  0  0  0  0
    2.1500    5.9610   -1.0360 C   0  0  0  0  0  0  0  0  0  0  0  0
    3.2890    6.3160   -0.2780 C   0  0  0  0  0  0  0  0  0  0  0  0
    0.3250    5.8590   -2.5620 S   0  0  0  0  0  0  0  0  0  0  0  0
    1.6020    6.7180   -2.0120 N   0  0  0  0  0  0  0  0  0  0  0  0
    4.0300    7.5830   -0.4560 C   0  0  1  0  0  0  0  0  0  0  0  0
    3.2370    9.0790   -1.0000 B   0  0  0  0  0  0  0  0  0  0  0  0
    5.4600    7.7790   -0.2190 C   0  0  0  0  0  0  0  0  0  0  0  0
    4.7380    9.9620   -0.7170 C   0  0  0  0  0  0  0  0  0  0  0  0
    6.3370    6.7770    0.0030 N   0  0  0  0  0  0  0  0  0  0  0  0
    5.8640    9.1080   -0.3570 C   0  0  0  0  0  0  0  0  0  0  0  0
    4.8340   11.3990   -0.8130 C   0  0  0  0  0  0  0  0  0  0  0  0
    7.6330    7.1430    0.1030 C   0  0  0  0  0  0  0  0  0  0  0  0
    7.1620    9.4780   -0.2980 N   0  0  0  0  0  0  0  0  0  0  0  0
    5.7950   12.1490   -0.1760 C   0  0  0  0  0  0  0  0  0  0  0  0
    3.7410   12.3940   -1.7660 S   0  0  0  0  0  0  0  0  0  0  0  0
    8.0430    8.4850   -0.0480 C   0  0  0  0  0  0  0  0  0  0  0  0
    5.6690   13.5410   -0.4520 C   0  0  0  0  0  0  0  0  0  0  0  0
    4.6230   13.8420   -1.2900 C   0  0  0  0  0  0  0  0  0  0  0  0
   -0.2080   -0.9490    1.2220 H   0  0  0  0  0  0  0  0  0  0  0  0
    1.1800    0.1500    3.0070 H   0  0  0  0  0  0  0  0  0  0  0  0
   -0.5080    0.2380   -0.9750 H   0  0  0  0  0  0  0  0  0  0  0  0
    2.1990    2.3740    2.5250 H   0  0  0  0  0  0  0  0  0  0  0  0
    4.5510    5.5760    1.3400 H   0  0  0  0  0  0  0  0  0  0  0  0
    8.3550    6.3500    0.2920 H   0  0  0  0  0  0  0  0  0  0  0  0
    6.5560   11.7600    0.4890 H   0  0  0  0  0  0  0  0  0  0  0  0
    9.0930    8.7660    0.0180 H   0  0  0  0  0  0  0  0  0  0  0  0
    6.3370   14.2870   -0.0320 H   0  0  0  0  0  0  0  0  0  0  0  0
    4.3070   14.8100   -1.6560 H   0  0  0  0  0  0  0  0  0  0  0  0
  1 30  1  0  0  0  0
  1  2  2  0  0  0  0
  2 31  1  0  0  0  0
  3  1  1  0  0  0  0
  4  2  1  0  0  0  0
  4 33  1  0  0  0  0
  5  3  2  0  0  0  0
  5  6  1  0  0  0  0
  6  4  2  0  0  0  0
  7  6  1  0  0  0  0
  7  8  2  0  0  0  0
  9  7  1  0  0  0  0
 10  8  1  0  0  0  0
 10 34  1  0  0  0  0
 11  9  2  0  0  0  0
 12  9  1  0  0  0  0
 12 13  1  0  0  0  0
 13 10  2  0  0  0  0
 14 15  1  0  0  0  0
 14 11  1  0  0  0  0
 15 12  2  0  0  0  0
 16 13  1  1  0  0  0
 16 18  1  0  0  0  0
 17 19  2  0  0  0  0
 17 16  1  0  0  0  0
 18 20  2  0  0  0  0
 19 21  1  0  0  0  0
 20 23  1  0  0  0  0
 21 24  2  0  0  0  0
 21 18  1  0  0  0  0
 22 19  1  0  0  0  0
 22 25  2  0  0  0  0
 23 35  1  0  0  0  0
 24 27  1  0  0  0  0
 25 36  1  0  0  0  0
 26 29  1  0  0  0  0
 26 22  1  0  0  0  0
 27 37  1  0  0  0  0
 27 23  2  0  0  0  0
 28 25  1  0  0  0  0
 28 38  1  0  0  0  0
 29 28  2  0  0  0  0
 32  3  1  0  0  0  0
 39 29  1  0  0  0  0
M  END
$$$$
scan_sander_basal/min_pdbs/min_pdb_C169_225.pdb
 OpenBabel09051718423D

 39 44  0  0  1  0  0  0  0  0999 V2000
    0.2660    0.0170    1.0300 C   0  0  0  0  0  0  0  0  0  0  0  0
    0.8690    0.7080    2.0880 C   0  0  0  0  0  0  0  0  0  0  0  0
    0.2610    0.6070   -0.2420 C   0  0  0  0  0  0  0  0  0  0  0  0
    1.4400    1.9610    1.8260 C   0  0  0  0  0  0  0  0  0  0  0  0
    0.8130    1.8100   -0.4860 N   0  0  0  0  0  0  0  0  0  0  0  0
    1.4010    2.5060    0.5140 C   0  0  0  0  0  0  0  0  0  0  0  0
    2.0160    3.8510    0.1960 C   0  0  0  0  0  0  0  0  0  0  0  0
    2.9700    4.2840    1.0580 N   0  0  0  0  0  0  0  0  0  0  0  0
    1.6490    4.6770   -0.9070 C   0  0  0  0  0  0  0  0  0  0  0  0
    3.5860    5.4670    0.8620 C   0  0  0  0  0  0  0  0  0  0  0  0
    0.6960    4.4030   -1.8250 N   0  0  0  0  0  0  0  0  0  0  0  0
    2.2820    5.9000   -1.1000 C   0  0  0  0  0  0  0  0  0  0  0  0
    3.2850    6.3280   -0.2090 C   0  0  0  0  0  0  0  0  0  0  0  0
    0.7020    5.6700   -2.8570 S   0  0  0  0  0  0  0  0  0  0  0  0
    1.8620    6.6000   -2.1750 N   0  0  0  0  0  0  0  0  0  0  0  0
    3.9960    7.6040   -0.3600 C   0  0  2  0  0  0  0  0  0  0  0  0
    3.1490    9.1160   -0.7360 B   0  0  0  0  0  0  0  0  0  0  0  0
    5.4360    7.7820   -0.2290 C   0  0  0  0  0  0  0  0  0  0  0  0
    4.6850    9.9800   -0.6060 C   0  0  0  0  0  0  0  0  0  0  0  0
    6.3090    6.7660   -0.0630 N   0  0  0  0  0  0  0  0  0  0  0  0
    5.8360    9.1110   -0.3680 C   0  0  0  0  0  0  0  0  0  0  0  0
    4.7860   11.4160   -0.7040 C   0  0  0  0  0  0  0  0  0  0  0  0
    7.6110    7.1220   -0.0420 C   0  0  0  0  0  0  0  0  0  0  0  0
    7.1380    9.4690   -0.3820 N   0  0  0  0  0  0  0  0  0  0  0  0
    5.8130   12.1570   -0.1680 C   0  0  0  0  0  0  0  0  0  0  0  0
    3.6070   12.4240   -1.5350 S   0  0  0  0  0  0  0  0  0  0  0  0
    8.0230    8.4630   -0.2050 C   0  0  0  0  0  0  0  0  0  0  0  0
    5.6710   13.5510   -0.4260 C   0  0  0  0  0  0  0  0  0  0  0  0
    4.5460   13.8630   -1.1500 C   0  0  0  0  0  0  0  0  0  0  0  0
   -0.1880   -0.9560    1.1870 H   0  0  0  0  0  0  0  0  0  0  0  0
    0.8940    0.2830    3.0890 H   0  0  0  0  0  0  0  0  0  0  0  0
   -0.1960    0.1030   -1.0930 H   0  0  0  0  0  0  0  0  0  0  0  0
    1.9110    2.5130    2.6340 H   0  0  0  0  0  0  0  0  0  0  0  0
    4.3430    5.7370    1.5980 H   0  0  0  0  0  0  0  0  0  0  0  0
    8.3370    6.3220    0.0940 H   0  0  0  0  0  0  0  0  0  0  0  0
    6.6360   11.7610    0.4130 H   0  0  0  0  0  0  0  0  0  0  0  0
    9.0780    8.7340   -0.2000 H   0  0  0  0  0  0  0  0  0  0  0  0
    6.3850   14.2900   -0.0760 H   0  0  0  0  0  0  0  0  0  0  0  0
    4.2010   14.8350   -1.4790 H   0  0  0  0  0  0  0  0  0  0  0  0
  1 30  1  0  0  0  0
  1  2  2  0  0  0  0
  2 31  1  0  0  0  0
  3  1  1  0  0  0  0
  4  2  1  0  0  0  0
  4 33  1  0  0  0  0
  5  3  2  0  0  0  0
  5  6  1  0  0  0  0
  6  4  2  0  0  0  0
  7  6  1  0  0  0  0
  7  8  2  0  0  0  0
  9  7  1  0  0  0  0
 10  8  1  0  0  0  0
 10 34  1  0  0  0  0
 11  9  2  0  0  0  0
 12  9  1  0  0  0  0
 12 13  1  0  0  0  0
 13 10  2  0  0  0  0
 14 15  1  0  0  0  0
 14 11  1  0  0  0  0
 15 12  2  0  0  0  0
 16 18  1  0  0  0  0
 16 13  1  6  0  0  0
 17 19  2  0  0  0  0
 17 16  1  0  0  0  0
 18 20  2  0  0  0  0
 19 21  1  0  0  0  0
 20 23  1  0  0  0  0
 21 18  1  0  0  0  0
 22 19  1  0  0  0  0
 22 25  2  0  0  0  0
 23 35  1  0  0  0  0
 24 21  2  0  0  0  0
 24 27  1  0  0  0  0
 25 36  1  0  0  0  0
 26 29  1  0  0  0  0
 26 22  1  0  0  0  0
 27 37  1  0  0  0  0
 27 23  2  0  0  0  0
 28 25  1  0  0  0  0
 28 38  1  0  0  0  0
 29 28  2  0  0  0  0
 32  3  1  0  0  0  0
 39 29  1  0  0  0  0
M  END
$$$$
scan_sander_basal/min_pdbs/min_pdb_C169_240.pdb
 OpenBabel09051718423D

 39 44  0  0  1  0  0  0  0  0999 V2000
    0.2500    0.0250    1.0240 C   0  0  0  0  0  0  0  0  0  0  0  0
    0.6630    0.7980    2.1170 C   0  0  0  0  0  0  0  0  0  0  0  0
    0.4360    0.5350   -0.2690 C   0  0  0  0  0  0  0  0  0  0  0  0
    1.2430    2.0500    1.8650 C   0  0  0  0  0  0  0  0  0  0  0  0
    0.9940    1.7370   -0.5010 N   0  0  0  0  0  0  0  0  0  0  0  0
    1.4010    2.5110    0.5300 C   0  0  0  0  0  0  0  0  0  0  0  0
    2.0300    3.8520    0.2250 C   0  0  0  0  0  0  0  0  0  0  0  0
    2.8280    4.3670    1.1950 N   0  0  0  0  0  0  0  0  0  0  0  0
    1.8250    4.5950   -0.9750 C   0  0  0  0  0  0  0  0  0  0  0  0
    3.4430    5.5550    1.0190 C   0  0  0  0  0  0  0  0  0  0  0  0
    1.0290    4.2410   -2.0090 N   0  0  0  0  0  0  0  0  0  0  0  0
    2.4580    5.8190   -1.1490 C   0  0  0  0  0  0  0  0  0  0  0  0
    3.3000    6.3270   -0.1460 C   0  0  0  0  0  0  0  0  0  0  0  0
    1.1700    5.4490   -3.1030 S   0  0  0  0  0  0  0  0  0  0  0  0
    2.1920    6.4510   -2.3110 N   0  0  0  0  0  0  0  0  0  0  0  0
    3.9890    7.6110   -0.2790 C   0  0  2  0  0  0  0  0  0  0  0  0
    3.1050    9.1250   -0.5210 B   0  0  0  0  0  0  0  0  0  0  0  0
    5.4310    7.7860   -0.2520 C   0  0  0  0  0  0  0  0  0  0  0  0
    4.6490    9.9880   -0.5140 C   0  0  0  0  0  0  0  0  0  0  0  0
    6.3100    6.7670   -0.1590 N   0  0  0  0  0  0  0  0  0  0  0  0
    5.8180    9.1180   -0.3900 C   0  0  0  0  0  0  0  0  0  0  0  0
    4.7390   11.4270   -0.6020 C   0  0  0  0  0  0  0  0  0  0  0  0
    7.6110    7.1250   -0.2200 C   0  0  0  0  0  0  0  0  0  0  0  0
    7.1160    9.4780   -0.4830 N   0  0  0  0  0  0  0  0  0  0  0  0
    5.8080   12.1630   -0.1490 C   0  0  0  0  0  0  0  0  0  0  0  0
    3.4910   12.4410   -1.3130 S   0  0  0  0  0  0  0  0  0  0  0  0
    8.0110    8.4690   -0.3860 C   0  0  0  0  0  0  0  0  0  0  0  0
    5.6420   13.5610   -0.3760 C   0  0  0  0  0  0  0  0  0  0  0  0
    4.4570   13.8780   -0.9950 C   0  0  0  0  0  0  0  0  0  0  0  0
   -0.2030   -0.9500    1.1720 H   0  0  0  0  0  0  0  0  0  0  0  0
    0.5380    0.4360    3.1340 H   0  0  0  0  0  0  0  0  0  0  0  0
    0.1300   -0.0340   -1.1460 H   0  0  0  0  0  0  0  0  0  0  0  0
    1.5680    2.6640    2.6990 H   0  0  0  0  0  0  0  0  0  0  0  0
    4.0760    5.8970    1.8380 H   0  0  0  0  0  0  0  0  0  0  0  0
    8.3440    6.3230   -0.1460 H   0  0  0  0  0  0  0  0  0  0  0  0
    6.6790   11.7640    0.3540 H   0  0  0  0  0  0  0  0  0  0  0  0
    9.0640    8.7410   -0.4470 H   0  0  0  0  0  0  0  0  0  0  0  0
    6.3830   14.2970   -0.0820 H   0  0  0  0  0  0  0  0  0  0  0  0
    4.0840   14.8530   -1.2820 H   0  0  0  0  0  0  0  0  0  0  0  0
  1 30  1  0  0  0  0
  1  2  2  0  0  0  0
  2 31  1  0  0  0  0
  3  1  1  0  0  0  0
  4  2  1  0  0  0  0
  4 33  1  0  0  0  0
  5  3  2  0  0  0  0
  5  6  1  0  0  0  0
  6  4  2  0  0  0  0
  7  6  1  0  0  0  0
  7  8  2  0  0  0  0
  9  7  1  0  0  0  0
 10  8  1  0  0  0  0
 10 34  1  0  0  0  0
 11  9  2  0  0  0  0
 12  9  1  0  0  0  0
 12 13  1  0  0  0  0
 13 10  2  0  0  0  0
 14 15  1  0  0  0  0
 14 11  1  0  0  0  0
 15 12  2  0  0  0  0
 16 18  1  0  0  0  0
 16 13  1  6  0  0  0
 17 19  2  0  0  0  0
 17 16  1  0  0  0  0
 18 20  2  0  0  0  0
 19 21  1  0  0  0  0
 21 18  1  0  0  0  0
 22 19  1  0  0  0  0
 22 25  2  0  0  0  0
 23 20  1  0  0  0  0
 23 35  1  0  0  0  0
 24 21  2  0  0  0  0
 24 27  1  0  0  0  0
 25 36  1  0  0  0  0
 26 29  1  0  0  0  0
 26 22  1  0  0  0  0
 27 23  2  0  0  0  0
 28 25  1  0  0  0  0
 28 38  1  0  0  0  0
 29 28  2  0  0  0  0
 32  3  1  0  0  0  0
 37 27  1  0  0  0  0
 39 29  1  0  0  0  0
M  END
$$$$
scan_sander_basal/min_pdbs/min_pdb_C169_255.pdb
 OpenBabel09051718423D

 39 44  0  0  1  0  0  0  0  0999 V2000
    0.2100    0.0480    1.0570 C   0  0  0  0  0  0  0  0  0  0  0  0
    0.4320    0.9090    2.1390 C   0  0  0  0  0  0  0  0  0  0  0  0
    0.5920    0.4660   -0.2260 C   0  0  0  0  0  0  0  0  0  0  0  0
    1.0270    2.1540    1.8870 C   0  0  0  0  0  0  0  0  0  0  0  0
    1.1630    1.6620   -0.4580 N   0  0  0  0  0  0  0  0  0  0  0  0
    1.3900    2.5200    0.5620 C   0  0  0  0  0  0  0  0  0  0  0  0
    2.0410    3.8510    0.2580 C   0  0  0  0  0  0  0  0  0  0  0  0
    2.6660    4.4580    1.2990 N   0  0  0  0  0  0  0  0  0  0  0  0
    2.0180    4.4970   -1.0140 C   0  0  0  0  0  0  0  0  0  0  0  0
    3.2860    5.6450    1.1300 C   0  0  0  0  0  0  0  0  0  0  0  0
    1.3980    4.0500   -2.1300 N   0  0  0  0  0  0  0  0  0  0  0  0
    2.6540    5.7200   -1.1800 C   0  0  0  0  0  0  0  0  0  0  0  0
    3.3210    6.3190   -0.1010 C   0  0  0  0  0  0  0  0  0  0  0  0
    1.6910    5.1810   -3.2750 S   0  0  0  0  0  0  0  0  0  0  0  0
    2.5620    6.2630   -2.4110 N   0  0  0  0  0  0  0  0  0  0  0  0
    3.9940    7.6100   -0.2290 C   0  0  0  0  0  0  0  0  0  0  0  0
    3.0880    9.1230   -0.3500 B   0  0  0  0  0  0  0  0  0  0  0  0
    5.4320    7.7880   -0.3070 C   0  0  0  0  0  0  0  0  0  0  0  0
    4.6270    9.9940   -0.4440 C   0  0  2  0  0  0  0  0  0  0  0  0
    6.3160    6.7700   -0.3070 N   0  0  0  0  0  0  0  0  0  0  0  0
    5.8040    9.1260   -0.4370 C   0  0  0  0  0  0  0  0  0  0  0  0
    4.7050   11.4340   -0.5020 C   0  0  0  0  0  0  0  0  0  0  0  0
    7.6080    7.1350   -0.4560 C   0  0  0  0  0  0  0  0  0  0  0  0
    7.0910    9.4930   -0.6170 N   0  0  0  0  0  0  0  0  0  0  0  0
    5.8050   12.1640   -0.1170 C   0  0  0  0  0  0  0  0  0  0  0  0
    3.4010   12.4610   -1.0840 S   0  0  0  0  0  0  0  0  0  0  0  0
    7.9920    8.4860   -0.6160 C   0  0  0  0  0  0  0  0  0  0  0  0
    5.6170   13.5660   -0.2940 C   0  0  0  0  0  0  0  0  0  0  0  0
    4.3860   13.8940   -0.8080 C   0  0  0  0  0  0  0  0  0  0  0  0
   -0.2480   -0.9250    1.2060 H   0  0  0  0  0  0  0  0  0  0  0  0
    0.1510    0.6210    3.1480 H   0  0  0  0  0  0  0  0  0  0  0  0
    0.4370   -0.1740   -1.0940 H   0  0  0  0  0  0  0  0  0  0  0  0
    1.2070    2.8360    2.7120 H   0  0  0  0  0  0  0  0  0  0  0  0
    3.7740    6.0640    2.0090 H   0  0  0  0  0  0  0  0  0  0  0  0
    8.3460    6.3350   -0.4600 H   0  0  0  0  0  0  0  0  0  0  0  0
    6.7150   11.7570    0.3040 H   0  0  0  0  0  0  0  0  0  0  0  0
    9.0370    8.7620   -0.7490 H   0  0  0  0  0  0  0  0  0  0  0  0
    6.3770   14.2980   -0.0410 H   0  0  0  0  0  0  0  0  0  0  0  0
    3.9880   14.8730   -1.0380 H   0  0  0  0  0  0  0  0  0  0  0  0
  1 30  1  0  0  0  0
  1  2  2  0  0  0  0
  2 31  1  0  0  0  0
  3  1  1  0  0  0  0
  4  2  1  0  0  0  0
  4 33  1  0  0  0  0
  5  3  2  0  0  0  0
  5  6  1  0  0  0  0
  6  4  2  0  0  0  0
  7  6  1  0  0  0  0
  7  8  2  0  0  0  0
  9  7  1  0  0  0  0
 10  8  1  0  0  0  0
 10 34  1  0  0  0  0
 11  9  2  0  0  0  0
 12  9  1  0  0  0  0
 12 13  1  0  0  0  0
 13 10  2  0  0  0  0
 14 15  1  0  0  0  0
 14 11  1  0  0  0  0
 15 12  2  0  0  0  0
 16 13  1  0  0  0  0
 17 16  2  0  0  0  0
 18 16  1  0  0  0  0
 19 22  1  1  0  0  0
 19 21  1  0  0  0  0
 19 17  1  0  0  0  0
 20 18  1  0  0  0  0
 21 18  2  0  0  0  0
 22 25  2  0  0  0  0
 23 20  2  0  0  0  0
 24 27  2  0  0  0  0
 24 21  1  0  0  0  0
 25 36  1  0  0  0  0
 26 29  1  0  0  0  0
 26 22  1  0  0  0  0
 27 23  1  0  0  0  0
 28 25  1  0  0  0  0
 28 38  1  0  0  0  0
 29 28  2  0  0  0  0
 32  3  1  0  0  0  0
 35 23  1  0  0  0  0
 37 27  1  0  0  0  0
 39 29  1  0  0  0  0
M  END
$$$$
scan_sander_basal/min_pdbs/min_pdb_C169_270.pdb
 OpenBabel09051718423D

 39 44  0  0  1  0  0  0  0  0999 V2000
   -0.1810    0.1910    0.4500 C   0  0  0  0  0  0  0  0  0  0  0  0
   -0.4990    1.1020   -0.5650 C   0  0  0  0  0  0  0  0  0  0  0  0
    0.8890    0.4840    1.3070 C   0  0  0  0  0  0  0  0  0  0  0  0
    0.2720    2.2690   -0.6770 C   0  0  0  0  0  0  0  0  0  0  0  0
    1.6220    1.6070    1.1930 N   0  0  0  0  0  0  0  0  0  0  0  0
    1.3460    2.5070    0.2230 C   0  0  0  0  0  0  0  0  0  0  0  0
    2.1900    3.7590    0.1340 C   0  0  0  0  0  0  0  0  0  0  0  0
    1.6190    4.8150   -0.5010 N   0  0  0  0  0  0  0  0  0  0  0  0
    3.5170    3.8850    0.6430 C   0  0  0  0  0  0  0  0  0  0  0  0
    2.2850    5.9810   -0.6270 C   0  0  0  0  0  0  0  0  0  0  0  0
    4.2380    2.9170    1.2520 N   0  0  0  0  0  0  0  0  0  0  0  0
    4.1990    5.0870    0.5050 C   0  0  0  0  0  0  0  0  0  0  0  0
    3.5840    6.1760   -0.1310 C   0  0  0  0  0  0  0  0  0  0  0  0
    5.6770    3.6070    1.6120 S   0  0  0  0  0  0  0  0  0  0  0  0
    5.4550    5.1050    0.9950 N   0  0  0  0  0  0  0  0  0  0  0  0
    4.2660    7.4560   -0.3050 C   0  0  0  0  0  0  0  0  0  0  0  0
    5.2720    7.7900   -1.7190 B   0  0  0  0  0  0  0  0  0  0  0  0
    4.2240    8.5510    0.6470 C   0  0  0  0  0  0  0  0  0  0  0  0
    5.5600    9.4160   -1.0830 C   0  0  2  0  0  0  0  0  0  0  0  0
    3.5890    8.4890    1.8350 N   0  0  0  0  0  0  0  0  0  0  0  0
    4.9550    9.6600    0.2260 C   0  0  0  0  0  0  0  0  0  0  0  0
    6.3090   10.4160   -1.8070 C   0  0  0  0  0  0  0  0  0  0  0  0
    3.7210    9.5870    2.6110 C   0  0  0  0  0  0  0  0  0  0  0  0
    5.1170   10.7470    1.0100 N   0  0  0  0  0  0  0  0  0  0  0  0
    6.1780   11.7710   -1.6090 C   0  0  0  0  0  0  0  0  0  0  0  0
    7.5040   10.0400   -3.0420 S   0  0  0  0  0  0  0  0  0  0  0  0
    4.4850   10.7040    2.2050 C   0  0  0  0  0  0  0  0  0  0  0  0
    7.0460   12.5290   -2.4480 C   0  0  0  0  0  0  0  0  0  0  0  0
    7.8270   11.7550   -3.2720 C   0  0  0  0  0  0  0  0  0  0  0  0
   -0.7510   -0.7250    0.5730 H   0  0  0  0  0  0  0  0  0  0  0  0
   -1.3220    0.9110   -1.2490 H   0  0  0  0  0  0  0  0  0  0  0  0
    1.1680   -0.1970    2.1100 H   0  0  0  0  0  0  0  0  0  0  0  0
    0.0420    2.9870   -1.4580 H   0  0  0  0  0  0  0  0  0  0  0  0
    1.7580    6.7860   -1.1400 H   0  0  0  0  0  0  0  0  0  0  0  0
    3.2200    9.5680    3.5770 H   0  0  0  0  0  0  0  0  0  0  0  0
    5.4850   12.2430   -0.9260 H   0  0  0  0  0  0  0  0  0  0  0  0
    4.5930   11.5760    2.8480 H   0  0  0  0  0  0  0  0  0  0  0  0
    7.0780   13.6140   -2.4340 H   0  0  0  0  0  0  0  0  0  0  0  0
    8.5630   12.0720   -3.9990 H   0  0  0  0  0  0  0  0  0  0  0  0
  1 30  1  0  0  0  0
  1  3  2  0  0  0  0
  2  1  1  0  0  0  0
  3 32  1  0  0  0  0
  4  2  2  0  0  0  0
  4  6  1  0  0  0  0
  5  3  1  0  0  0  0
  6  5  2  0  0  0  0
  7  6  1  0  0  0  0
  7  9  1  0  0  0  0
  8  7  2  0  0  0  0
  9 11  2  0  0  0  0
 10  8  1  0  0  0  0
 10 13  2  0  0  0  0
 11 14  1  0  0  0  0
 12  9  1  0  0  0  0
 12 15  2  0  0  0  0
 13 12  1  0  0  0  0
 15 14  1  0  0  0  0
 16 13  1  0  0  0  0
 16 18  1  0  0  0  0
 17 19  1  0  0  0  0
 17 16  2  0  0  0  0
 18 20  1  0  0  0  0
 19 22  1  6  0  0  0
 19 21  1  0  0  0  0
 20 23  2  0  0  0  0
 21 18  2  0  0  0  0
 21 24  1  0  0  0  0
 22 25  2  0  0  0  0
 23 35  1  0  0  0  0
 24 27  2  0  0  0  0
 25 36  1  0  0  0  0
 26 22  1  0  0  0  0
 27 23  1  0  0  0  0
 27 37  1  0  0  0  0
 28 38  1  0  0  0  0
 28 25  1  0  0  0  0
 29 26  1  0  0  0  0
 29 28  2  0  0  0  0
 31  2  1  0  0  0  0
 33  4  1  0  0  0  0
 34 10  1  0  0  0  0
 39 29  1  0  0  0  0
M  END
$$$$
scan_sander_basal/min_pdbs/min_pdb_C169_285.pdb
 OpenBabel09051718423D

 39 44  0  0  1  0  0  0  0  0999 V2000
   -0.1700    0.1740    0.3810 C   0  0  0  0  0  0  0  0  0  0  0  0
   -0.3470    0.9940   -0.7400 C   0  0  0  0  0  0  0  0  0  0  0  0
    0.7610    0.5590    1.3560 C   0  0  0  0  0  0  0  0  0  0  0  0
    0.4180    2.1650   -0.8360 C   0  0  0  0  0  0  0  0  0  0  0  0
    1.4910    1.6850    1.2570 N   0  0  0  0  0  0  0  0  0  0  0  0
    1.3480    2.4990    0.1860 C   0  0  0  0  0  0  0  0  0  0  0  0
    2.1820    3.7590    0.1170 C   0  0  0  0  0  0  0  0  0  0  0  0
    1.6980    4.7470   -0.6770 N   0  0  0  0  0  0  0  0  0  0  0  0
    3.4200    3.9550    0.7990 C   0  0  0  0  0  0  0  0  0  0  0  0
    2.3620    5.9150   -0.8010 C   0  0  0  0  0  0  0  0  0  0  0  0
    4.0570    3.0540    1.5810 N   0  0  0  0  0  0  0  0  0  0  0  0
    4.1010    5.1580    0.6630 C   0  0  0  0  0  0  0  0  0  0  0  0
    3.5720    6.1800   -0.1410 C   0  0  0  0  0  0  0  0  0  0  0  0
    5.4220    3.8020    2.0850 S   0  0  0  0  0  0  0  0  0  0  0  0
    5.2740    5.2410    1.3230 N   0  0  0  0  0  0  0  0  0  0  0  0
    4.2530    7.4610   -0.3180 C   0  0  0  0  0  0  0  0  0  0  0  0
    5.1390    7.8470   -1.7980 B   0  0  0  0  0  0  0  0  0  0  0  0
    4.3040    8.5170    0.6780 C   0  0  0  0  0  0  0  0  0  0  0  0
    5.5020    9.4410   -1.1220 C   0  0  2  0  0  0  0  0  0  0  0  0
    3.7610    8.4170    1.9090 N   0  0  0  0  0  0  0  0  0  0  0  0
    5.0120    9.6360    0.2430 C   0  0  0  0  0  0  0  0  0  0  0  0
    6.2020   10.4630   -1.8640 C   0  0  0  0  0  0  0  0  0  0  0  0
    3.9700    9.4820    2.7130 C   0  0  0  0  0  0  0  0  0  0  0  0
    5.2490   10.6890    1.0520 N   0  0  0  0  0  0  0  0  0  0  0  0
    6.1090   11.8100   -1.6010 C   0  0  0  0  0  0  0  0  0  0  0  0
    7.2840   10.1260   -3.2100 S   0  0  0  0  0  0  0  0  0  0  0  0
    4.7140   10.6060    2.2910 C   0  0  0  0  0  0  0  0  0  0  0  0
    6.9140   12.5930   -2.4780 C   0  0  0  0  0  0  0  0  0  0  0  0
    7.6110   11.8460   -3.3960 C   0  0  0  0  0  0  0  0  0  0  0  0
   -0.7420   -0.7420    0.4960 H   0  0  0  0  0  0  0  0  0  0  0  0
   -1.0610    0.7300   -1.5170 H   0  0  0  0  0  0  0  0  0  0  0  0
    0.9290   -0.0500    2.2440 H   0  0  0  0  0  0  0  0  0  0  0  0
    0.2970    2.8130   -1.6980 H   0  0  0  0  0  0  0  0  0  0  0  0
    1.9040    6.6640   -1.4470 H   0  0  0  0  0  0  0  0  0  0  0  0
    3.5450    9.4300    3.7150 H   0  0  0  0  0  0  0  0  0  0  0  0
    5.4810   12.2600   -0.8430 H   0  0  0  0  0  0  0  0  0  0  0  0
    4.8850   11.4510    2.9570 H   0  0  0  0  0  0  0  0  0  0  0  0
    6.9620   13.6760   -2.4230 H   0  0  0  0  0  0  0  0  0  0  0  0
    8.2880   12.1850   -4.1700 H   0  0  0  0  0  0  0  0  0  0  0  0
  1 30  1  0  0  0  0
  1  3  2  0  0  0  0
  2  1  1  0  0  0  0
  3 32  1  0  0  0  0
  4  2  2  0  0  0  0
  4  6  1  0  0  0  0
  5  3  1  0  0  0  0
  6  5  2  0  0  0  0
  7  6  1  0  0  0  0
  7  9  1  0  0  0  0
  8  7  2  0  0  0  0
  9 11  2  0  0  0  0
 10  8  1  0  0  0  0
 10 13  2  0  0  0  0
 11 14  1  0  0  0  0
 12  9  1  0  0  0  0
 12 15  2  0  0  0  0
 13 12  1  0  0  0  0
 15 14  1  0  0  0  0
 16 13  1  0  0  0  0
 16 18  1  0  0  0  0
 17 19  1  0  0  0  0
 17 16  2  0  0  0  0
 18 20  1  0  0  0  0
 19 22  1  6  0  0  0
 19 21  1  0  0  0  0
 20 23  2  0  0  0  0
 21 18  2  0  0  0  0
 21 24  1  0  0  0  0
 22 25  2  0  0  0  0
 23 35  1  0  0  0  0
 24 27  2  0  0  0  0
 25 36  1  0  0  0  0
 26 22  1  0  0  0  0
 27 23  1  0  0  0  0
 27 37  1  0  0  0  0
 28 38  1  0  0  0  0
 28 25  1  0  0  0  0
 29 26  1  0  0  0  0
 29 28  2  0  0  0  0
 31  2  1  0  0  0  0
 33  4  1  0  0  0  0
 34 10  1  0  0  0  0
 39 29  1  0  0  0  0
M  END
$$$$
scan_sander_basal/min_pdbs/min_pdb_C169_300.pdb
 OpenBabel09051718423D

 39 44  0  0  1  0  0  0  0  0999 V2000
   -0.1420    0.1390    0.3100 C   0  0  0  0  0  0  0  0  0  0  0  0
   -0.1790    0.8750   -0.8810 C   0  0  0  0  0  0  0  0  0  0  0  0
    0.6430    0.6150    1.3710 C   0  0  0  0  0  0  0  0  0  0  0  0
    0.5740    2.0560   -0.9570 C   0  0  0  0  0  0  0  0  0  0  0  0
    1.3620    1.7490    1.2890 N   0  0  0  0  0  0  0  0  0  0  0  0
    1.3510    2.4830    0.1530 C   0  0  0  0  0  0  0  0  0  0  0  0
    2.1670    3.7560    0.1050 C   0  0  0  0  0  0  0  0  0  0  0  0
    1.7790    4.6740   -0.8160 N   0  0  0  0  0  0  0  0  0  0  0  0
    3.2980    4.0310    0.9290 C   0  0  0  0  0  0  0  0  0  0  0  0
    2.4340    5.8470   -0.9330 C   0  0  0  0  0  0  0  0  0  0  0  0
    3.8410    3.1970    1.8450 N   0  0  0  0  0  0  0  0  0  0  0  0
    3.9710    5.2400    0.8030 C   0  0  0  0  0  0  0  0  0  0  0  0
    3.5360    6.1950   -0.1340 C   0  0  0  0  0  0  0  0  0  0  0  0
    5.1200    4.0050    2.4670 S   0  0  0  0  0  0  0  0  0  0  0  0
    5.0520    5.3860    1.5960 N   0  0  0  0  0  0  0  0  0  0  0  0
    4.2020    7.4860   -0.3160 C   0  0  2  0  0  0  0  0  0  0  0  0
    4.9420    7.9300   -1.8600 B   0  0  0  0  0  0  0  0  0  0  0  0
    4.3620    8.5040    0.7110 C   0  0  0  0  0  0  0  0  0  0  0  0
    5.4250    9.4760   -1.1500 C   0  0  0  0  0  0  0  0  0  0  0  0
    3.8980    8.3850    1.9720 N   0  0  0  0  0  0  0  0  0  0  0  0
    5.0600    9.6230    0.2590 C   0  0  0  0  0  0  0  0  0  0  0  0
    6.1020   10.5030   -1.9070 C   0  0  0  0  0  0  0  0  0  0  0  0
    4.1890    9.4190    2.7910 C   0  0  0  0  0  0  0  0  0  0  0  0
    5.3760   10.6470    1.0800 N   0  0  0  0  0  0  0  0  0  0  0  0
    6.0890   11.8390   -1.5830 C   0  0  0  0  0  0  0  0  0  0  0  0
    7.0510   10.1830   -3.3540 S   0  0  0  0  0  0  0  0  0  0  0  0
    4.9300   10.5370    2.3510 C   0  0  0  0  0  0  0  0  0  0  0  0
    6.8500   12.6280   -2.4950 C   0  0  0  0  0  0  0  0  0  0  0  0
    7.4350   11.8950   -3.4980 C   0  0  0  0  0  0  0  0  0  0  0  0
   -0.7090   -0.7810    0.4140 H   0  0  0  0  0  0  0  0  0  0  0  0
   -0.7770    0.5400   -1.7250 H   0  0  0  0  0  0  0  0  0  0  0  0
    0.6990    0.0730    2.3140 H   0  0  0  0  0  0  0  0  0  0  0  0
    0.5590    2.6390   -1.8730 H   0  0  0  0  0  0  0  0  0  0  0  0
    2.0530    6.5360   -1.6860 H   0  0  0  0  0  0  0  0  0  0  0  0
    3.8330    9.3460    3.8180 H   0  0  0  0  0  0  0  0  0  0  0  0
    5.5480   12.2820   -0.7580 H   0  0  0  0  0  0  0  0  0  0  0  0
    5.1680   11.3570    3.0270 H   0  0  0  0  0  0  0  0  0  0  0  0
    6.9490   13.7040   -2.4000 H   0  0  0  0  0  0  0  0  0  0  0  0
    8.0590   12.2400   -4.3120 H   0  0  0  0  0  0  0  0  0  0  0  0
  1 30  1  0  0  0  0
  1  3  2  0  0  0  0
  2  1  1  0  0  0  0
  3 32  1  0  0  0  0
  4  2  2  0  0  0  0
  4  6  1  0  0  0  0
  5  3  1  0  0  0  0
  6  5  2  0  0  0  0
  7  6  1  0  0  0  0
  7  9  1  0  0  0  0
  8  7  2  0  0  0  0
  9 11  2  0  0  0  0
 10  8  1  0  0  0  0
 10 13  2  0  0  0  0
 11 14  1  0  0  0  0
 12  9  1  0  0  0  0
 12 15  2  0  0  0  0
 13 12  1  0  0  0  0
 15 14  1  0  0  0  0
 16 13  1  1  0  0  0
 16 18  1  0  0  0  0
 17 19  2  0  0  0  0
 17 16  1  0  0  0  0
 18 20  1  0  0  0  0
 19 21  1  0  0  0  0
 20 23  2  0  0  0  0
 21 18  2  0  0  0  0
 21 24  1  0  0  0  0
 22 25  2  0  0  0  0
 22 19  1  0  0  0  0
 23 35  1  0  0  0  0
 24 27  2  0  0  0  0
 25 36  1  0  0  0  0
 26 22  1  0  0  0  0
 27 23  1  0  0  0  0
 27 37  1  0  0  0  0
 28 38  1  0  0  0  0
 28 25  1  0  0  0  0
 29 26  1  0  0  0  0
 29 28  2  0  0  0  0
 31  2  1  0  0  0  0
 33  4  1  0  0  0  0
 34 10  1  0  0  0  0
 39 29  1  0  0  0  0
M  END
$$$$
scan_sander_basal/min_pdbs/min_pdb_C169_315.pdb
 OpenBabel09051718423D

 39 44  0  0  1  0  0  0  0  0999 V2000
   -0.1130    0.1000    0.2160 C   0  0  0  0  0  0  0  0  0  0  0  0
   -0.0140    0.7730   -1.0090 C   0  0  0  0  0  0  0  0  0  0  0  0
    0.5290    0.6440    1.3370 C   0  0  0  0  0  0  0  0  0  0  0  0
    0.7270    1.9630   -1.0550 C   0  0  0  0  0  0  0  0  0  0  0  0
    1.2360    1.7880    1.2830 N   0  0  0  0  0  0  0  0  0  0  0  0
    1.3560    2.4620    0.1170 C   0  0  0  0  0  0  0  0  0  0  0  0
    2.1540    3.7470    0.1020 C   0  0  0  0  0  0  0  0  0  0  0  0
    1.8690    4.6090   -0.9060 N   0  0  0  0  0  0  0  0  0  0  0  0
    3.1700    4.0880    1.0420 C   0  0  0  0  0  0  0  0  0  0  0  0
    2.5150    5.7880   -1.0020 C   0  0  0  0  0  0  0  0  0  0  0  0
    3.6170    3.3020    2.0470 N   0  0  0  0  0  0  0  0  0  0  0  0
    3.8320    5.3080    0.9400 C   0  0  0  0  0  0  0  0  0  0  0  0
    3.4960    6.2120   -0.0880 C   0  0  0  0  0  0  0  0  0  0  0  0
    4.8110    4.1520    2.7700 S   0  0  0  0  0  0  0  0  0  0  0  0
    4.8240    5.4910    1.8350 N   0  0  0  0  0  0  0  0  0  0  0  0
    4.1350    7.5240   -0.2710 C   0  0  2  0  0  0  0  0  0  0  0  0
    4.6900    8.0370   -1.8720 B   0  0  0  0  0  0  0  0  0  0  0  0
    4.4240    8.5070    0.7690 C   0  0  0  0  0  0  0  0  0  0  0  0
    5.3320    9.5180   -1.1550 C   0  0  0  0  0  0  0  0  0  0  0  0
    4.0330    8.3940    2.0550 N   0  0  0  0  0  0  0  0  0  0  0  0
    5.1130    9.6210    0.2870 C   0  0  0  0  0  0  0  0  0  0  0  0
    5.9920   10.5370   -1.9400 C   0  0  0  0  0  0  0  0  0  0  0  0
    4.4110    9.4020    2.8690 C   0  0  0  0  0  0  0  0  0  0  0  0
    5.5120   10.6230    1.0990 N   0  0  0  0  0  0  0  0  0  0  0  0
    6.0940   11.8580   -1.5730 C   0  0  0  0  0  0  0  0  0  0  0  0
    6.7720   10.2200   -3.4850 S   0  0  0  0  0  0  0  0  0  0  0  0
    5.1570   10.5030    2.3970 C   0  0  0  0  0  0  0  0  0  0  0  0
    6.8090   12.6360   -2.5300 C   0  0  0  0  0  0  0  0  0  0  0  0
    7.2460   11.9100   -3.6110 C   0  0  0  0  0  0  0  0  0  0  0  0
   -0.6760   -0.8250    0.2980 H   0  0  0  0  0  0  0  0  0  0  0  0
   -0.4980    0.3830   -1.9000 H   0  0  0  0  0  0  0  0  0  0  0  0
    0.4760    0.1530    2.3080 H   0  0  0  0  0  0  0  0  0  0  0  0
    0.8170    2.4990   -1.9950 H   0  0  0  0  0  0  0  0  0  0  0  0
    2.2110    6.4270   -1.8300 H   0  0  0  0  0  0  0  0  0  0  0  0
    4.1200    9.3240    3.9150 H   0  0  0  0  0  0  0  0  0  0  0  0
    5.6660   12.3010   -0.6840 H   0  0  0  0  0  0  0  0  0  0  0  0
    5.4650   11.3050    3.0660 H   0  0  0  0  0  0  0  0  0  0  0  0
    6.9840   13.7010   -2.4100 H   0  0  0  0  0  0  0  0  0  0  0  0
    7.8060   12.2500   -4.4720 H   0  0  0  0  0  0  0  0  0  0  0  0
  1 30  1  0  0  0  0
  1  3  2  0  0  0  0
  2  1  1  0  0  0  0
  3 32  1  0  0  0  0
  4  2  2  0  0  0  0
  4  6  1  0  0  0  0
  5  3  1  0  0  0  0
  6  5  2  0  0  0  0
  7  6  1  0  0  0  0
  7  9  1  0  0  0  0
  8  7  2  0  0  0  0
  9 11  2  0  0  0  0
 10  8  1  0  0  0  0
 10 13  2  0  0  0  0
 11 14  1  0  0  0  0
 12  9  1  0  0  0  0
 12 15  2  0  0  0  0
 13 12  1  0  0  0  0
 15 14  1  0  0  0  0
 16 13  1  1  0  0  0
 16 18  1  0  0  0  0
 17 19  2  0  0  0  0
 17 16  1  0  0  0  0
 18 20  1  0  0  0  0
 19 21  1  0  0  0  0
 20 23  2  0  0  0  0
 21 18  2  0  0  0  0
 21 24  1  0  0  0  0
 22 25  2  0  0  0  0
 22 19  1  0  0  0  0
 23 35  1  0  0  0  0
 24 27  2  0  0  0  0
 25 36  1  0  0  0  0
 26 22  1  0  0  0  0
 27 23  1  0  0  0  0
 27 37  1  0  0  0  0
 28 38  1  0  0  0  0
 28 25  1  0  0  0  0
 29 26  1  0  0  0  0
 29 28  2  0  0  0  0
 31  2  1  0  0  0  0
 33  4  1  0  0  0  0
 34 10  1  0  0  0  0
 39 29  1  0  0  0  0
M  END
$$$$
scan_sander_basal/min_pdbs/min_pdb_C169_330.pdb
 OpenBabel09051718423D

 39 44  0  0  1  0  0  0  0  0999 V2000
   -0.0560    0.0450    0.0970 C   0  0  0  0  0  0  0  0  0  0  0  0
    0.1650    0.6800   -1.1310 C   0  0  0  0  0  0  0  0  0  0  0  0
    0.4470    0.6400    1.2630 C   0  0  0  0  0  0  0  0  0  0  0  0
    0.8820    1.8850   -1.1370 C   0  0  0  0  0  0  0  0  0  0  0  0
    1.1330    1.7970    1.2480 N   0  0  0  0  0  0  0  0  0  0  0  0
    1.3670    2.4370    0.0800 C   0  0  0  0  0  0  0  0  0  0  0  0
    2.1360    3.7390    0.1080 C   0  0  0  0  0  0  0  0  0  0  0  0
    1.9490    4.5600   -0.9530 N   0  0  0  0  0  0  0  0  0  0  0  0
    3.0350    4.1360    1.1390 C   0  0  0  0  0  0  0  0  0  0  0  0
    2.5730    5.7520   -1.0160 C   0  0  0  0  0  0  0  0  0  0  0  0
    3.3930    3.3810    2.2020 N   0  0  0  0  0  0  0  0  0  0  0  0
    3.6730    5.3730    1.0740 C   0  0  0  0  0  0  0  0  0  0  0  0
    3.4280    6.2480   -0.0110 C   0  0  0  0  0  0  0  0  0  0  0  0
    4.4950    4.2660    3.0180 S   0  0  0  0  0  0  0  0  0  0  0  0
    4.5750    5.5810    2.0550 N   0  0  0  0  0  0  0  0  0  0  0  0
    4.0340    7.5860   -0.1880 C   0  0  2  0  0  0  0  0  0  0  0  0
    4.3740    8.1850   -1.8240 B   0  0  0  0  0  0  0  0  0  0  0  0
    4.4710    8.5320    0.8420 C   0  0  0  0  0  0  0  0  0  0  0  0
    5.2120    9.5770   -1.1380 C   0  0  0  0  0  0  0  0  0  0  0  0
    4.1610    8.4370    2.1520 N   0  0  0  0  0  0  0  0  0  0  0  0
    5.1580    9.6330    0.3210 C   0  0  0  0  0  0  0  0  0  0  0  0
    5.8670   10.5680   -1.9610 C   0  0  0  0  0  0  0  0  0  0  0  0
    4.6420    9.4170    2.9460 C   0  0  0  0  0  0  0  0  0  0  0  0
    5.6530   10.6110    1.1090 N   0  0  0  0  0  0  0  0  0  0  0  0
    6.1240   11.8630   -1.5740 C   0  0  0  0  0  0  0  0  0  0  0  0
    6.4410   10.2440   -3.5930 S   0  0  0  0  0  0  0  0  0  0  0  0
    5.3990   10.4890    2.4300 C   0  0  0  0  0  0  0  0  0  0  0  0
    6.7930   12.6130   -2.5850 C   0  0  0  0  0  0  0  0  0  0  0  0
    7.0430   11.8930   -3.7280 C   0  0  0  0  0  0  0  0  0  0  0  0
   -0.6060   -0.8900    0.1480 H   0  0  0  0  0  0  0  0  0  0  0  0
   -0.2090    0.2500   -2.0570 H   0  0  0  0  0  0  0  0  0  0  0  0
    0.2960    0.1780    2.2380 H   0  0  0  0  0  0  0  0  0  0  0  0
    1.0660    2.3920   -2.0790 H   0  0  0  0  0  0  0  0  0  0  0  0
    2.3350    6.3470   -1.8950 H   0  0  0  0  0  0  0  0  0  0  0  0
    4.4220    9.3400    4.0090 H   0  0  0  0  0  0  0  0  0  0  0  0
    5.8380   12.3100   -0.6320 H   0  0  0  0  0  0  0  0  0  0  0  0
    5.7890   11.2700    3.0800 H   0  0  0  0  0  0  0  0  0  0  0  0
    7.0710   13.6540   -2.4580 H   0  0  0  0  0  0  0  0  0  0  0  0
    7.5310   12.2160   -4.6370 H   0  0  0  0  0  0  0  0  0  0  0  0
  1 30  1  0  0  0  0
  1  3  2  0  0  0  0
  2  1  1  0  0  0  0
  3 32  1  0  0  0  0
  4  2  2  0  0  0  0
  4  6  1  0  0  0  0
  5  3  1  0  0  0  0
  6  7  1  0  0  0  0
  6  5  2  0  0  0  0
  7  9  1  0  0  0  0
  8  7  2  0  0  0  0
  9 11  2  0  0  0  0
 10  8  1  0  0  0  0
 10 13  2  0  0  0  0
 11 14  1  0  0  0  0
 12  9  1  0  0  0  0
 12 15  2  0  0  0  0
 13 12  1  0  0  0  0
 15 14  1  0  0  0  0
 16 13  1  1  0  0  0
 16 18  1  0  0  0  0
 17 19  2  0  0  0  0
 17 16  1  0  0  0  0
 18 20  1  0  0  0  0
 19 21  1  0  0  0  0
 20 23  2  0  0  0  0
 21 18  2  0  0  0  0
 21 24  1  0  0  0  0
 22 25  2  0  0  0  0
 22 19  1  0  0  0  0
 23 35  1  0  0  0  0
 24 27  2  0  0  0  0
 25 36  1  0  0  0  0
 26 22  1  0  0  0  0
 27 23  1  0  0  0  0
 27 37  1  0  0  0  0
 28 38  1  0  0  0  0
 28 25  1  0  0  0  0
 29 26  1  0  0  0  0
 29 28  2  0  0  0  0
 31  2  1  0  0  0  0
 33  4  1  0  0  0  0
 34 10  1  0  0  0  0
 39 29  1  0  0  0  0
M  END
$$$$
scan_sander_basal/min_pdbs/min_pdb_C169_345.pdb
 OpenBabel09051718423D

 39 44  0  0  1  0  0  0  0  0999 V2000
   -0.0460    0.0220   -0.0410 C   0  0  0  0  0  0  0  0  0  0  0  0
    0.3510    0.6050   -1.2510 C   0  0  0  0  0  0  0  0  0  0  0  0
    0.2860    0.6680    1.1580 C   0  0  0  0  0  0  0  0  0  0  0  0
    1.0640    1.8120   -1.2060 C   0  0  0  0  0  0  0  0  0  0  0  0
    0.9700    1.8260    1.1920 N   0  0  0  0  0  0  0  0  0  0  0  0
    1.3700    2.4170    0.0430 C   0  0  0  0  0  0  0  0  0  0  0  0
    2.1290    3.7230    0.1250 C   0  0  0  0  0  0  0  0  0  0  0  0
    2.0960    4.4950   -0.9840 N   0  0  0  0  0  0  0  0  0  0  0  0
    2.8720    4.1730    1.2510 C   0  0  0  0  0  0  0  0  0  0  0  0
    2.7180    5.6890   -1.0080 C   0  0  0  0  0  0  0  0  0  0  0  0
    3.0730    3.4570    2.3810 N   0  0  0  0  0  0  0  0  0  0  0  0
    3.5100    5.4130    1.2260 C   0  0  0  0  0  0  0  0  0  0  0  0
    3.4190    6.2520    0.0840 C   0  0  0  0  0  0  0  0  0  0  0  0
    4.0470    4.3740    3.3140 S   0  0  0  0  0  0  0  0  0  0  0  0
    4.2580    5.6510    2.3220 N   0  0  0  0  0  0  0  0  0  0  0  0
    4.0200    7.6070   -0.0860 C   0  0  2  0  0  0  0  0  0  0  0  0
    4.1880    8.2740   -1.7280 B   0  0  0  0  0  0  0  0  0  0  0  0
    4.5780    8.5350    0.9120 C   0  0  0  0  0  0  0  0  0  0  0  0
    5.1420    9.6150   -1.1090 C   0  0  0  0  0  0  0  0  0  0  0  0
    4.3860    8.4480    2.2450 N   0  0  0  0  0  0  0  0  0  0  0  0
    5.2400    9.6310    0.3460 C   0  0  0  0  0  0  0  0  0  0  0  0
    5.7420   10.6040   -1.9770 C   0  0  0  0  0  0  0  0  0  0  0  0
    4.9600    9.4060    3.0020 C   0  0  0  0  0  0  0  0  0  0  0  0
    5.8280   10.5900    1.0930 N   0  0  0  0  0  0  0  0  0  0  0  0
    6.0860   11.8800   -1.5960 C   0  0  0  0  0  0  0  0  0  0  0  0
    6.1270   10.2980   -3.6680 S   0  0  0  0  0  0  0  0  0  0  0  0
    5.6950   10.4620    2.4290 C   0  0  0  0  0  0  0  0  0  0  0  0
    6.6690   12.6300   -2.6590 C   0  0  0  0  0  0  0  0  0  0  0  0
    6.7680   11.9280   -3.8360 C   0  0  0  0  0  0  0  0  0  0  0  0
   -0.6000   -0.9120   -0.0290 H   0  0  0  0  0  0  0  0  0  0  0  0
    0.1120    0.1340   -2.2010 H   0  0  0  0  0  0  0  0  0  0  0  0
   -0.0050    0.2480    2.1210 H   0  0  0  0  0  0  0  0  0  0  0  0
    1.3820    2.2780   -2.1330 H   0  0  0  0  0  0  0  0  0  0  0  0
    2.5930    6.2260   -1.9450 H   0  0  0  0  0  0  0  0  0  0  0  0
    4.8310    9.3230    4.0800 H   0  0  0  0  0  0  0  0  0  0  0  0
    5.9190   12.3160   -0.6210 H   0  0  0  0  0  0  0  0  0  0  0  0
    6.1610   11.2270    3.0470 H   0  0  0  0  0  0  0  0  0  0  0  0
    6.9950   13.6580   -2.5430 H   0  0  0  0  0  0  0  0  0  0  0  0
    7.1660   12.2560   -4.7870 H   0  0  0  0  0  0  0  0  0  0  0  0
  1 30  1  0  0  0  0
  1  3  2  0  0  0  0
  2  4  2  0  0  0  0
  2  1  1  0  0  0  0
  3  5  1  0  0  0  0
  3 32  1  0  0  0  0
  4  6  1  0  0  0  0
  6  7  1  0  0  0  0
  6  5  2  0  0  0  0
  7  9  1  0  0  0  0
  8  7  2  0  0  0  0
  9 11  2  0  0  0  0
 10  8  1  0  0  0  0
 10 13  2  0  0  0  0
 11 14  1  0  0  0  0
 12  9  1  0  0  0  0
 12 15  2  0  0  0  0
 13 12  1  0  0  0  0
 15 14  1  0  0  0  0
 16 13  1  6  0  0  0
 16 18  1  0  0  0  0
 17 19  2  0  0  0  0
 17 16  1  0  0  0  0
 18 20  1  0  0  0  0
 19 21  1  0  0  0  0
 20 23  2  0  0  0  0
 21 18  2  0  0  0  0
 21 24  1  0  0  0  0
 22 25  2  0  0  0  0
 22 19  1  0  0  0  0
 23 35  1  0  0  0  0
 24 27  2  0  0  0  0
 25 36  1  0  0  0  0
 26 22  1  0  0  0  0
 27 23  1  0  0  0  0
 27 37  1  0  0  0  0
 28 38  1  0  0  0  0
 28 25  1  0  0  0  0
 29 26  1  0  0  0  0
 29 28  2  0  0  0  0
 31  2  1  0  0  0  0
 33  4  1  0  0  0  0
 34 10  1  0  0  0  0
 39 29  1  0  0  0  0
M  END
$$$$
scan_sander_basal/min_pdbs/min_pdb_C169_360.pdb
 OpenBabel09051718423D

 39 44  0  0  1  0  0  0  0  0999 V2000
   -0.2300    0.1890   -0.1970 C   0  0  0  0  0  0  0  0  0  0  0  0
    0.6770    0.4690   -1.2270 C   0  0  0  0  0  0  0  0  0  0  0  0
   -0.3150    1.0770    0.8840 C   0  0  0  0  0  0  0  0  0  0  0  0
    1.4590    1.6280   -1.1280 C   0  0  0  0  0  0  0  0  0  0  0  0
    0.4390    2.1880    0.9700 N   0  0  0  0  0  0  0  0  0  0  0  0
    1.3270    2.4890   -0.0040 C   0  0  0  0  0  0  0  0  0  0  0  0
    2.1530    3.7510    0.1260 C   0  0  0  0  0  0  0  0  0  0  0  0
    2.6520    4.2490   -1.0260 N   0  0  0  0  0  0  0  0  0  0  0  0
    2.4500    4.4200    1.3450 C   0  0  0  0  0  0  0  0  0  0  0  0
    3.4050    5.3640   -1.0240 C   0  0  0  0  0  0  0  0  0  0  0  0
    2.0240    4.0250    2.5660 N   0  0  0  0  0  0  0  0  0  0  0  0
    3.2390    5.5730    1.3460 C   0  0  0  0  0  0  0  0  0  0  0  0
    3.7790    6.0880    0.1340 C   0  0  0  0  0  0  0  0  0  0  0  0
    2.5930    5.1370    3.6130 S   0  0  0  0  0  0  0  0  0  0  0  0
    3.3840    6.1110    2.5720 N   0  0  0  0  0  0  0  0  0  0  0  0
    4.6130    7.3190   -0.0440 C   0  0  1  0  0  0  0  0  0  0  0  0
    5.0890    7.8070   -1.6920 B   0  0  0  0  0  0  0  0  0  0  0  0
    5.0990    8.3130    0.9330 C   0  0  0  0  0  0  0  0  0  0  0  0
    5.4490    9.4240   -1.1120 C   0  0  2  0  0  0  0  0  0  0  0  0
    5.3130    8.0840    2.2440 N   0  0  0  0  0  0  0  0  0  0  0  0
    5.5190    9.5090    0.3370 C   0  0  0  0  0  0  0  0  0  0  0  0
    5.6360   10.5640   -1.9750 C   0  0  0  0  0  0  0  0  0  0  0  0
    5.8760    9.0840    2.9550 C   0  0  0  0  0  0  0  0  0  0  0  0
    6.1310   10.4990    1.0240 N   0  0  0  0  0  0  0  0  0  0  0  0
    5.4530   11.8640   -1.5670 C   0  0  0  0  0  0  0  0  0  0  0  0
    6.1310   10.4590   -3.6590 S   0  0  0  0  0  0  0  0  0  0  0  0
    6.2780   10.2900    2.3480 C   0  0  0  0  0  0  0  0  0  0  0  0
    5.7140   12.8020   -2.6070 C   0  0  0  0  0  0  0  0  0  0  0  0
    6.0920   12.2150   -3.7910 C   0  0  0  0  0  0  0  0  0  0  0  0
   -0.8550   -0.6980   -0.2330 H   0  0  0  0  0  0  0  0  0  0  0  0
    0.7730   -0.1960   -2.0820 H   0  0  0  0  0  0  0  0  0  0  0  0
   -1.0080    0.8970    1.7050 H   0  0  0  0  0  0  0  0  0  0  0  0
    2.1700    1.8610   -1.9150 H   0  0  0  0  0  0  0  0  0  0  0  0
    3.7310    5.6580   -2.0170 H   0  0  0  0  0  0  0  0  0  0  0  0
    6.0230    8.9080    4.0190 H   0  0  0  0  0  0  0  0  0  0  0  0
    5.1240   12.1680   -0.5810 H   0  0  0  0  0  0  0  0  0  0  0  0
    6.7490   11.0840    2.9240 H   0  0  0  0  0  0  0  0  0  0  0  0
    5.6180   13.8740   -2.4710 H   0  0  0  0  0  0  0  0  0  0  0  0
    6.3450   12.6900   -4.7300 H   0  0  0  0  0  0  0  0  0  0  0  0
  1  3  2  0  0  0  0
  2  4  2  0  0  0  0
  2  1  1  0  0  0  0
  3  5  1  0  0  0  0
  3 32  1  0  0  0  0
  4  6  1  0  0  0  0
  6  7  1  0  0  0  0
  6  5  2  0  0  0  0
  7  9  1  0  0  0  0
  8 10  1  0  0  0  0
  8  7  2  0  0  0  0
  9 12  1  0  0  0  0
  9 11  2  0  0  0  0
 10 13  2  0  0  0  0
 11 14  1  0  0  0  0
 12 15  2  0  0  0  0
 13 12  1  0  0  0  0
 15 14  1  0  0  0  0
 16 13  1  6  0  0  0
 16 18  1  0  0  0  0
 17 19  1  0  0  0  0
 17 16  1  0  0  0  0
 18 20  1  0  0  0  0
 19 22  1  1  0  0  0
 19 21  1  0  0  0  0
 20 23  2  0  0  0  0
 21 18  2  0  0  0  0
 21 24  1  0  0  0  0
 22 25  2  0  0  0  0
 23 35  1  0  0  0  0
 24 27  2  0  0  0  0
 25 36  1  0  0  0  0
 26 22  1  0  0  0  0
 27 37  1  0  0  0  0
 27 23  1  0  0  0  0
 28 38  1  0  0  0  0
 28 25  1  0  0  0  0
 29 26  1  0  0  0  0
 29 28  2  0  0  0  0
 30  1  1  0  0  0  0
 31  2  1  0  0  0  0
 33  4  1  0  0  0  0
 34 10  1  0  0  0  0
 39 29  1  0  0  0  0
M  END
$$$$
