@<TRIPOS>MOLECULE
*****
 39 44 0 0 0
SMALL
GASTEIGER

@<TRIPOS>ATOM
      1 C          -1.6323   -0.2286    0.3374 C.ar    1  LIG1       -0.0436
      2 C          -1.0963    0.8521   -0.3485 C.ar    1  LIG1       -0.0583
      3 C          -0.7595   -1.1785    0.8333 C.ar    1  LIG1        0.0283
      4 C           0.2858    0.9371   -0.5185 C.ar    1  LIG1       -0.0341
      5 N           0.5815   -1.1169    0.6832 N.ar    1  LIG1       -0.2534
      6 C           1.1058   -0.0702   -0.0066 C.ar    1  LIG1        0.0913
      7 C           2.5630   -0.0371   -0.1772 C.ar    1  LIG1        0.1172
      8 N           3.2012    1.1832   -0.2757 N.ar    1  LIG1       -0.2505
      9 C           3.3791   -1.1988   -0.2883 C.ar    1  LIG1        0.1278
     10 C           4.5666    1.2734   -0.4195 C.ar    1  LIG1        0.0388
     11 N           2.9916   -2.4882   -0.2820 N.ar    1  LIG1       -0.1885
     12 C           4.8815   -1.0495   -0.4665 C.ar    1  LIG1        0.1117
     13 C           5.4977    0.2317   -0.5059 C.ar    1  LIG1        0.0371
     14 S           4.3420   -3.4172   -0.4449 S.2     1  LIG1        0.1166
     15 N           5.4921   -2.2443   -0.5926 N.ar    1  LIG1       -0.1900
     16 C           6.9481    0.4347   -0.6376 C.ar    1  LIG1        0.0510
     17 S           8.0516   -0.6553    0.1114 S.2     1  LIG1       -0.0832
     18 C           7.6565    1.4528   -1.2426 C.ar    1  LIG1        0.1046
     19 C           9.4615    0.1547   -0.4512 C.ar    1  LIG1        0.0539
     20 N           7.0548    2.5102   -1.8693 N.ar    1  LIG1       -0.2508
     21 C           9.0984    1.2917   -1.1487 C.ar    1  LIG1        0.1050
     22 C          10.7864   -0.3699   -0.1796 C.ar    1  LIG1        0.0280
     23 C           7.9748    3.3783   -2.3683 C.ar    1  LIG1        0.0464
     24 N           9.9925    2.1814   -1.6756 N.ar    1  LIG1       -0.2507
     25 C          11.9228   -0.2388   -0.9607 C.ar    1  LIG1       -0.0464
     26 S          11.1398   -1.2832    1.2396 S.2     1  LIG1       -0.0961
     27 C           9.3605    3.2243   -2.2755 C.ar    1  LIG1        0.0464
     28 C          13.0600   -0.9024   -0.4088 C.ar    1  LIG1       -0.0541
     29 C          12.7672   -1.5153    0.7866 C.ar    1  LIG1       -0.0237
     30 H          -2.7018   -0.3293    0.4835 H       1  LIG1        0.0633
     31 H          -1.7459    1.6235   -0.7519 H       1  LIG1        0.0619
     32 H          -1.1222   -2.0443    1.3799 H       1  LIG1        0.0830
     33 H           0.7156    1.7775   -1.0559 H       1  LIG1        0.0639
     34 H           4.9098    2.3082   -0.4536 H       1  LIG1        0.0837
     35 H           7.5572    4.2485   -2.8674 H       1  LIG1        0.0845
     36 H          11.9418    0.3008   -1.9004 H       1  LIG1        0.0629
     37 H          10.0213    3.9745   -2.7003 H       1  LIG1        0.0845
     38 H          14.0410   -0.9294   -0.8669 H       1  LIG1        0.0623
     39 H          13.4302   -2.0874    1.4210 H       1  LIG1        0.0693
@<TRIPOS>BOND
     1    26    29   ar
     2    29    28   ar
     3    28    25   ar
     4    25    22   ar
     5    26    22   ar
     6    22    19    1
     7    19    17   ar
     8    17    16   ar
     9    16    13    1
    10    13    10   ar
    11    10     8   ar
    12     8     7   ar
    13     7     6    1
    14     6     4   ar
    15     4     2   ar
    16     2     1   ar
    17     1     3   ar
    18     3     5   ar
    19     6     5   ar
    20     7     9   ar
    21     9    11   ar
    22    11    14   ar
    23    14    15   ar
    24    15    12   ar
    25    13    12   ar
    26     9    12   ar
    27    16    18   ar
    28    18    20   ar
    29    20    23   ar
    30    23    27   ar
    31    27    24   ar
    32    24    21   ar
    33    19    21   ar
    34    18    21   ar
    35     1    30    1
    36     2    31    1
    37     3    32    1
    38     4    33    1
    39    10    34    1
    40    23    35    1
    41    25    36    1
    42    27    37    1
    43    28    38    1
    44    29    39    1
