@<TRIPOS>MOLECULE
*****
 37 42 0 0 0
SMALL
GASTEIGER

@<TRIPOS>ATOM
      1 C           0.4799    1.5464    0.1811 C.ar    1  LIG1        0.0276
      2 C          -0.8432    1.2970    0.4889 C.ar    1  LIG1       -0.0430
      3 N           1.3349    0.5911   -0.2266 N.ar    1  LIG1       -0.2627
      4 C          -1.3145   -0.0133    0.3830 C.ar    1  LIG1       -0.0510
      5 C           0.8446   -0.6727   -0.3208 C.ar    1  LIG1        0.0354
      6 C          -0.4684   -1.0570   -0.0286 C.ar    1  LIG1        0.0038
      7 C          -0.9493   -2.4430   -0.1527 C.ar    1  LIG1        0.0299
      8 C          -2.2630   -2.7988   -0.4992 C.ar    1  LIG1        0.0382
      9 C          -0.1428   -3.5954    0.0706 C.ar    1  LIG1        0.1112
     10 N          -2.8126   -4.0507   -0.6263 N.ar    1  LIG1       -0.2515
     11 N           1.1521   -3.6031    0.4383 N.ar    1  LIG1       -0.1900
     12 C          -0.7006   -5.0031   -0.0806 C.ar    1  LIG1        0.1269
     13 C          -2.0670   -5.1797   -0.4332 C.ar    1  LIG1        0.1067
     14 S           1.6341   -5.1785    0.5475 S.2     1  LIG1        0.1166
     15 N           0.2319   -5.9487    0.1425 N.ar    1  LIG1       -0.1886
     16 C          -2.7251   -6.4693   -0.5831 C.ar    1  LIG1        0.0546
     17 S          -2.2855   -7.8540    0.3326 S.2     1  LIG1       -0.0828
     18 C          -3.7866   -6.7753   -1.3974 C.ar    1  LIG1        0.0363
     19 C          -3.4636   -8.8885   -0.3927 C.ar    1  LIG1        0.0531
     20 S          -4.7343   -5.7751   -2.5816 S.2     1  LIG1       -0.0954
     21 C          -4.1673   -8.1183   -1.2698 C.ar    1  LIG1        0.0066
     22 C          -3.5936  -10.2874   -0.0477 C.ar    1  LIG1        0.1154
     23 C          -5.6537   -7.2376   -2.8696 C.ar    1  LIG1       -0.0231
     24 C          -5.2611   -8.3687   -2.1439 C.ar    1  LIG1       -0.0458
     25 N          -4.5038  -11.0778   -0.5880 N.ar    1  LIG1       -0.2468
     26 S          -2.5672  -11.0713    1.1061 S.2     1  LIG1       -0.0751
     27 C          -4.3955  -12.3562   -0.0702 C.ar    1  LIG1        0.0355
     28 C          -3.4009  -12.5412    0.8639 C.ar    1  LIG1       -0.0042
     29 H           0.8985    2.5457    0.2560 H       1  LIG1        0.0829
     30 H          -1.4953    2.1020    0.8094 H       1  LIG1        0.0633
     31 H          -2.3535   -0.2014    0.6437 H       1  LIG1        0.0625
     32 H           1.5860   -1.3876   -0.6692 H       1  LIG1        0.0836
     33 H          -2.9920   -2.0169   -0.7189 H       1  LIG1        0.0836
     34 H          -6.4593   -7.1758   -3.5890 H       1  LIG1        0.0694
     35 H          -5.7632   -9.3237   -2.2548 H       1  LIG1        0.0629
     36 H          -5.0745  -13.1290   -0.4099 H       1  LIG1        0.0835
     37 H          -3.1310  -13.4399    1.3992 H       1  LIG1        0.0709
@<TRIPOS>BOND
     1    26    28   ar
     2    28    27   ar
     3    27    25   ar
     4    25    22   ar
     5    26    22   ar
     6    22    19    1
     7    19    17   ar
     8    17    16   ar
     9    16    18   ar
    10    18    20   ar
    11    20    23   ar
    12    23    24   ar
    13    24    21   ar
    14    19    21   ar
    15    18    21   ar
    16    16    13    1
    17    13    10   ar
    18    10     8   ar
    19     8     7   ar
    20     7     6    1
    21     6     4   ar
    22     4     2   ar
    23     2     1   ar
    24     1     3   ar
    25     3     5   ar
    26     6     5   ar
    27     7     9   ar
    28     9    11   ar
    29    11    14   ar
    30    14    15   ar
    31    15    12   ar
    32    13    12   ar
    33     9    12   ar
    34     1    29    1
    35     2    30    1
    36     4    31    1
    37     5    32    1
    38     8    33    1
    39    23    34    1
    40    24    35    1
    41    27    36    1
    42    28    37    1
