@<TRIPOS>MOLECULE
*****
 38 43 0 0 0
SMALL
GASTEIGER

@<TRIPOS>ATOM
      1 C           1.4040    1.2971    0.5776 C.ar    1  LIG1       -0.0617
      2 C           0.0499    1.0847    0.8081 C.ar    1  LIG1       -0.0612
      3 C           2.2087    0.2317    0.1917 C.ar    1  LIG1       -0.0612
      4 C          -0.4950   -0.1964    0.6618 C.ar    1  LIG1       -0.0539
      5 C           1.6570   -1.0445    0.0312 C.ar    1  LIG1       -0.0539
      6 C           0.2940   -1.2969    0.2706 C.ar    1  LIG1       -0.0143
      7 C          -0.3008   -2.6352    0.1003 C.ar    1  LIG1        0.0284
      8 C          -1.6095   -2.8554   -0.3610 C.ar    1  LIG1        0.0382
      9 C           0.3727   -3.8624    0.3752 C.ar    1  LIG1        0.1112
     10 N          -2.2629   -4.0442   -0.5600 N.ar    1  LIG1       -0.2500
     11 N           1.6291   -4.0040    0.8396 N.ar    1  LIG1       -0.1900
     12 C          -0.3082   -5.2075    0.1632 C.ar    1  LIG1        0.1283
     13 C          -1.6431   -5.2401   -0.3065 C.ar    1  LIG1        0.1239
     14 S           1.9379   -5.6218    0.9666 S.2     1  LIG1        0.1166
     15 N           0.5019   -6.2447    0.4447 N.ar    1  LIG1       -0.1885
     16 C          -2.3699   -6.4855   -0.5365 C.ar    1  LIG1        0.1291
     17 N          -2.1869   -7.6243    0.1011 N.ar    1  LIG1       -0.2451
     18 S          -3.5976   -6.5389   -1.7456 S.2     1  LIG1       -0.0651
     19 C          -3.0435   -8.5922   -0.3928 C.ar    1  LIG1        0.0438
     20 C          -3.8935   -8.2001   -1.4082 C.ar    1  LIG1        0.0471
     21 C          -4.8843   -8.9686   -2.1185 C.ar    1  LIG1        0.0417
     22 S          -5.3210   -8.6559   -3.7707 S.2     1  LIG1       -0.0944
     23 C          -5.6091  -10.0334   -1.6401 C.ar    1  LIG1        0.0346
     24 C          -6.4769   -9.9268   -3.8221 C.ar    1  LIG1       -0.0155
     25 S          -5.6657  -10.8723   -0.0341 S.2     1  LIG1       -0.0955
     26 C          -6.4791  -10.5308   -2.6188 C.ar    1  LIG1       -0.0032
     27 C          -6.8882  -11.8993   -0.7665 C.ar    1  LIG1       -0.0231
     28 C          -7.2200  -11.6173   -2.0954 C.ar    1  LIG1       -0.0465
     29 H           1.8317    2.2885    0.6998 H       1  LIG1        0.0618
     30 H          -0.5859    1.9138    1.1085 H       1  LIG1        0.0618
     31 H           3.2698    0.3871    0.0129 H       1  LIG1        0.0618
     32 H          -1.5555   -0.3175    0.8739 H       1  LIG1        0.0624
     33 H           2.3234   -1.8421   -0.2911 H       1  LIG1        0.0624
     34 H          -2.2362   -2.0014   -0.6238 H       1  LIG1        0.0836
     35 H          -2.9850   -9.5860    0.0353 H       1  LIG1        0.0841
     36 H          -7.0586  -10.1325   -4.7107 H       1  LIG1        0.0700
     37 H          -7.3100  -12.6789   -0.1465 H       1  LIG1        0.0694
     38 H          -7.9680  -12.1803   -2.6391 H       1  LIG1        0.0629
@<TRIPOS>BOND
     1    25    27   ar
     2    27    28   ar
     3    28    26   ar
     4    26    24   ar
     5    24    22   ar
     6    22    21   ar
     7    21    20    1
     8    20    18   ar
     9    18    16   ar
    10    16    17   ar
    11    17    19   ar
    12    20    19   ar
    13    16    13    1
    14    13    10   ar
    15    10     8   ar
    16     8     7   ar
    17     7     6    1
    18     6     4   ar
    19     4     2   ar
    20     2     1   ar
    21     1     3   ar
    22     3     5   ar
    23     6     5   ar
    24     7     9   ar
    25     9    11   ar
    26    11    14   ar
    27    14    15   ar
    28    15    12   ar
    29    13    12   ar
    30     9    12   ar
    31    21    23   ar
    32    25    23   ar
    33    26    23   ar
    34     1    29    1
    35     2    30    1
    36     3    31    1
    37     4    32    1
    38     5    33    1
    39     8    34    1
    40    19    35    1
    41    24    36    1
    42    27    37    1
    43    28    38    1
