scan_sander_basal/min_pdbs/min_pdb_C306_000.pdb
 OpenBabel09051719393D

 38 43  0  0  0  0  0  0  0  0999 V2000
   -0.7060    0.3330    0.6310 C   0  0  0  0  0  0  0  0  0  0  0  0
   -0.1750    0.5680   -0.6460 C   0  0  0  0  0  0  0  0  0  0  0  0
   -0.3740    1.1860    1.6930 C   0  0  0  0  0  0  0  0  0  0  0  0
    0.6930    1.6520   -0.8570 C   0  0  0  0  0  0  0  0  0  0  0  0
    0.4940    2.2690    1.4800 C   0  0  0  0  0  0  0  0  0  0  0  0
    1.0600    2.5160    0.2040 C   0  0  0  0  0  0  0  0  0  0  0  0
    1.9550    3.6890   -0.0520 C   0  0  0  0  0  0  0  0  0  0  0  0
    1.7910    4.4740   -1.2180 C   0  0  0  0  0  0  0  0  0  0  0  0
    2.9620    4.1280    0.8410 C   0  0  0  0  0  0  0  0  0  0  0  0
    2.5320    5.5620   -1.5050 N   0  0  0  0  0  0  0  0  0  0  0  0
    3.2740    3.5100    1.9990 N   0  0  0  0  0  0  0  0  0  0  0  0
    3.7340    5.2480    0.5500 C   0  0  0  0  0  0  0  0  0  0  0  0
    3.5060    5.9630   -0.6520 C   0  0  0  0  0  0  0  0  0  0  0  0
    4.4960    4.3880    2.6380 S   0  0  0  0  0  0  0  0  0  0  0  0
    4.6600    5.5400    1.4910 N   0  0  0  0  0  0  0  0  0  0  0  0
    4.2590    7.1670   -1.0550 C   0  0  0  0  0  0  0  0  0  0  0  0
    5.3280    7.6470   -0.4330 N   0  0  0  0  0  0  0  0  0  0  0  0
    3.7590    8.0880   -2.4640 B   0  0  0  0  0  0  0  0  0  0  0  0
    5.8170    8.7820   -1.0420 C   0  0  0  0  0  0  0  0  0  0  0  0
    5.0950    9.1630   -2.1500 C   0  0  0  0  0  0  0  0  0  0  0  0
    5.3870   10.3120   -2.9780 C   0  0  0  0  0  0  0  0  0  0  0  0
    4.4220   10.7600   -4.4040 C   0  0  0  0  0  0  0  0  0  0  0  0
    6.4100   11.2240   -2.8280 C   0  0  0  0  0  0  0  0  0  0  0  0
    5.4340   12.1710   -4.7550 C   0  0  0  0  0  0  0  0  0  0  0  0
    7.6860   11.3490   -1.6470 S   0  0  0  0  0  0  0  0  0  0  0  0
    6.4080   12.2140   -3.8010 C   0  0  0  0  0  0  0  0  0  0  0  0
    8.2450   12.8110   -2.5120 C   0  0  0  0  0  0  0  0  0  0  0  0
    7.4720   13.1350   -3.6190 C   0  0  0  0  0  0  0  0  0  0  0  0
   -1.3770   -0.5050    0.7950 H   0  0  0  0  0  0  0  0  0  0  0  0
   -0.4340   -0.0890   -1.4720 H   0  0  0  0  0  0  0  0  0  0  0  0
   -0.7910    1.0120    2.6810 H   0  0  0  0  0  0  0  0  0  0  0  0
    1.0990    1.8170   -1.8500 H   0  0  0  0  0  0  0  0  0  0  0  0
    0.7250    2.9300    2.3090 H   0  0  0  0  0  0  0  0  0  0  0  0
    1.0200    4.2240   -1.9460 H   0  0  0  0  0  0  0  0  0  0  0  0
    6.6860    9.2440   -0.6050 H   0  0  0  0  0  0  0  0  0  0  0  0
    5.2430   12.8250   -5.5930 H   0  0  0  0  0  0  0  0  0  0  0  0
    9.1160   13.3340   -2.1370 H   0  0  0  0  0  0  0  0  0  0  0  0
    7.6500   13.9830   -4.2710 H   0  0  0  0  0  0  0  0  0  0  0  0
  1 29  1  0  0  0  0
  1  3  2  0  0  0  0
  2  1  1  0  0  0  0
  3 31  1  0  0  0  0
  4  2  2  0  0  0  0
  4  6  1  0  0  0  0
  5  3  1  0  0  0  0
  5 33  1  0  0  0  0
  6  5  2  0  0  0  0
  7  6  1  0  0  0  0
  7  9  1  0  0  0  0
  8  7  2  0  0  0  0
  9 11  2  0  0  0  0
 10  8  1  0  0  0  0
 10 13  2  0  0  0  0
 11 14  1  0  0  0  0
 12  9  1  0  0  0  0
 12 15  2  0  0  0  0
 13 12  1  0  0  0  0
 15 14  1  0  0  0  0
 16 13  1  0  0  0  0
 16 17  2  0  0  0  0
 18 20  2  0  0  0  0
 18 16  1  0  0  0  0
 19 35  1  0  0  0  0
 19 17  1  0  0  0  0
 20 19  1  0  0  0  0
 21 23  2  0  0  0  0
 21 20  1  0  0  0  0
 22 21  1  0  0  0  0
 23 25  1  0  0  0  0
 24 22  2  0  0  0  0
 24 26  1  0  0  0  0
 26 28  2  0  0  0  0
 26 23  1  0  0  0  0
 27 37  1  0  0  0  0
 27 25  2  0  0  0  0
 28 27  1  0  0  0  0
 30  2  1  0  0  0  0
 32  4  1  0  0  0  0
 34  8  1  0  0  0  0
 36 24  1  0  0  0  0
 38 28  1  0  0  0  0
M  END
$$$$
scan_sander_basal/min_pdbs/min_pdb_C306_015.pdb
 OpenBabel09051719393D

 38 43  0  0  0  0  0  0  0  0999 V2000
   -0.5800    0.2360    0.5560 C   0  0  0  0  0  0  0  0  0  0  0  0
   -0.0060    0.4870   -0.6990 C   0  0  0  0  0  0  0  0  0  0  0  0
   -0.3320    1.1100    1.6250 C   0  0  0  0  0  0  0  0  0  0  0  0
    0.8210    1.6070   -0.8820 C   0  0  0  0  0  0  0  0  0  0  0  0
    0.4960    2.2290    1.4390 C   0  0  0  0  0  0  0  0  0  0  0  0
    1.1040    2.4930    0.1870 C   0  0  0  0  0  0  0  0  0  0  0  0
    1.9570    3.7030   -0.0410 C   0  0  0  0  0  0  0  0  0  0  0  0
    1.8080    4.4720   -1.2190 C   0  0  0  0  0  0  0  0  0  0  0  0
    2.9040    4.1920    0.8900 C   0  0  0  0  0  0  0  0  0  0  0  0
    2.5140    5.5900   -1.4850 N   0  0  0  0  0  0  0  0  0  0  0  0
    3.1930    3.5970    2.0660 N   0  0  0  0  0  0  0  0  0  0  0  0
    3.6390    5.3420    0.6220 C   0  0  0  0  0  0  0  0  0  0  0  0
    3.4330    6.0370   -0.5950 C   0  0  0  0  0  0  0  0  0  0  0  0
    4.3480    4.5320    2.7490 S   0  0  0  0  0  0  0  0  0  0  0  0
    4.5100    5.6810    1.5990 N   0  0  0  0  0  0  0  0  0  0  0  0
    4.1510    7.2700   -0.9780 C   0  0  0  0  0  0  0  0  0  0  0  0
    5.1720    7.7990   -0.3150 N   0  0  0  0  0  0  0  0  0  0  0  0
    3.6720    8.1580   -2.4160 B   0  0  0  0  0  0  0  0  0  0  0  0
    5.6470    8.9400   -0.9220 C   0  0  0  0  0  0  0  0  0  0  0  0
    4.9700    9.2670   -2.0740 C   0  0  0  0  0  0  0  0  0  0  0  0
    5.2710   10.4130   -2.8990 C   0  0  0  0  0  0  0  0  0  0  0  0
    4.1650   11.0720   -4.1260 C   0  0  0  0  0  0  0  0  0  0  0  0
    6.4120   11.1850   -2.8630 C   0  0  0  0  0  0  0  0  0  0  0  0
    5.2880   12.3740   -4.5590 C   0  0  0  0  0  0  0  0  0  0  0  0
    7.8890   11.0090   -1.9540 S   0  0  0  0  0  0  0  0  0  0  0  0
    6.3970   12.2270   -3.7780 C   0  0  0  0  0  0  0  0  0  0  0  0
    8.4990   12.4510   -2.8190 C   0  0  0  0  0  0  0  0  0  0  0  0
    7.6050   12.9690   -3.7470 C   0  0  0  0  0  0  0  0  0  0  0  0
   -1.2200   -0.6300    0.6980 H   0  0  0  0  0  0  0  0  0  0  0  0
   -0.2000   -0.1870   -1.5300 H   0  0  0  0  0  0  0  0  0  0  0  0
   -0.7830    0.9230    2.5950 H   0  0  0  0  0  0  0  0  0  0  0  0
    1.2620    1.7830   -1.8580 H   0  0  0  0  0  0  0  0  0  0  0  0
    0.6620    2.9050    2.2720 H   0  0  0  0  0  0  0  0  0  0  0  0
    1.0810    4.1830   -1.9770 H   0  0  0  0  0  0  0  0  0  0  0  0
    6.4590    9.4650   -0.4450 H   0  0  0  0  0  0  0  0  0  0  0  0
    5.0630   13.0980   -5.3290 H   0  0  0  0  0  0  0  0  0  0  0  0
    9.4930   12.8120   -2.5860 H   0  0  0  0  0  0  0  0  0  0  0  0
    7.7990   13.8270   -4.3810 H   0  0  0  0  0  0  0  0  0  0  0  0
  1 29  1  0  0  0  0
  1  3  2  0  0  0  0
  2  1  1  0  0  0  0
  3 31  1  0  0  0  0
  4  2  2  0  0  0  0
  4  6  1  0  0  0  0
  5  3  1  0  0  0  0
  5 33  1  0  0  0  0
  6  5  2  0  0  0  0
  7  6  1  0  0  0  0
  7  9  1  0  0  0  0
  8  7  2  0  0  0  0
  9 11  2  0  0  0  0
 10  8  1  0  0  0  0
 10 13  2  0  0  0  0
 11 14  1  0  0  0  0
 12  9  1  0  0  0  0
 12 15  2  0  0  0  0
 13 12  1  0  0  0  0
 15 14  1  0  0  0  0
 16 13  1  0  0  0  0
 16 17  2  0  0  0  0
 18 20  2  0  0  0  0
 18 16  1  0  0  0  0
 19 35  1  0  0  0  0
 19 17  1  0  0  0  0
 20 19  1  0  0  0  0
 21 23  2  0  0  0  0
 21 20  1  0  0  0  0
 22 21  1  0  0  0  0
 23 25  1  0  0  0  0
 24 22  2  0  0  0  0
 24 26  1  0  0  0  0
 26 28  2  0  0  0  0
 26 23  1  0  0  0  0
 27 37  1  0  0  0  0
 27 25  2  0  0  0  0
 28 27  1  0  0  0  0
 30  2  1  0  0  0  0
 32  4  1  0  0  0  0
 34  8  1  0  0  0  0
 36 24  1  0  0  0  0
 38 28  1  0  0  0  0
M  END
$$$$
scan_sander_basal/min_pdbs/min_pdb_C306_030.pdb
 OpenBabel09051719393D

 38 43  0  0  0  0  0  0  0  0999 V2000
   -0.4450    0.1600    0.5180 C   0  0  0  0  0  0  0  0  0  0  0  0
    0.1760    0.4090   -0.7140 C   0  0  0  0  0  0  0  0  0  0  0  0
   -0.2810    1.0630    1.5790 C   0  0  0  0  0  0  0  0  0  0  0  0
    0.9660    1.5580   -0.8820 C   0  0  0  0  0  0  0  0  0  0  0  0
    0.5090    2.2110    1.4070 C   0  0  0  0  0  0  0  0  0  0  0  0
    1.1640    2.4760    0.1790 C   0  0  0  0  0  0  0  0  0  0  0  0
    1.9770    3.7150   -0.0350 C   0  0  0  0  0  0  0  0  0  0  0  0
    1.8530    4.4540   -1.2350 C   0  0  0  0  0  0  0  0  0  0  0  0
    2.8610    4.2590    0.9280 C   0  0  0  0  0  0  0  0  0  0  0  0
    2.5240    5.5950   -1.4900 N   0  0  0  0  0  0  0  0  0  0  0  0
    3.1190    3.6980    2.1270 N   0  0  0  0  0  0  0  0  0  0  0  0
    3.5600    5.4330    0.6700 C   0  0  0  0  0  0  0  0  0  0  0  0
    3.3810    6.0970   -0.5690 C   0  0  0  0  0  0  0  0  0  0  0  0
    4.2020    4.6920    2.8420 S   0  0  0  0  0  0  0  0  0  0  0  0
    4.3710    5.8260    1.6780 N   0  0  0  0  0  0  0  0  0  0  0  0
    4.0650    7.3520   -0.9440 C   0  0  0  0  0  0  0  0  0  0  0  0
    5.0320    7.9350   -0.2440 N   0  0  0  0  0  0  0  0  0  0  0  0
    3.6140    8.1920   -2.4220 B   0  0  0  0  0  0  0  0  0  0  0  0
    5.4840    9.0850   -0.8510 C   0  0  0  0  0  0  0  0  0  0  0  0
    4.8470    9.3570   -2.0370 C   0  0  0  0  0  0  0  0  0  0  0  0
    5.1530   10.5110   -2.8400 C   0  0  0  0  0  0  0  0  0  0  0  0
    3.9890   11.3930   -3.8540 C   0  0  0  0  0  0  0  0  0  0  0  0
    6.3780   11.1290   -2.9140 C   0  0  0  0  0  0  0  0  0  0  0  0
    5.2140   12.5750   -4.3620 C   0  0  0  0  0  0  0  0  0  0  0  0
    7.9150   10.6790   -2.2300 S   0  0  0  0  0  0  0  0  0  0  0  0
    6.3860   12.2300   -3.7540 C   0  0  0  0  0  0  0  0  0  0  0  0
    8.6050   12.0950   -3.0810 C   0  0  0  0  0  0  0  0  0  0  0  0
    7.6820   12.8010   -3.8440 C   0  0  0  0  0  0  0  0  0  0  0  0
   -1.0570   -0.7290    0.6500 H   0  0  0  0  0  0  0  0  0  0  0  0
    0.0470   -0.2880   -1.5380 H   0  0  0  0  0  0  0  0  0  0  0  0
   -0.7700    0.8770    2.5320 H   0  0  0  0  0  0  0  0  0  0  0  0
    1.4440    1.7330   -1.8420 H   0  0  0  0  0  0  0  0  0  0  0  0
    0.6090    2.9090    2.2330 H   0  0  0  0  0  0  0  0  0  0  0  0
    1.1740    4.1210   -2.0190 H   0  0  0  0  0  0  0  0  0  0  0  0
    6.2520    9.6670   -0.3600 H   0  0  0  0  0  0  0  0  0  0  0  0
    4.9890   13.3770   -5.0500 H   0  0  0  0  0  0  0  0  0  0  0  0
    9.6610   12.3010   -2.9660 H   0  0  0  0  0  0  0  0  0  0  0  0
    7.9130   13.6730   -4.4450 H   0  0  0  0  0  0  0  0  0  0  0  0
  1 29  1  0  0  0  0
  1  3  2  0  0  0  0
  2  1  1  0  0  0  0
  3 31  1  0  0  0  0
  4  2  2  0  0  0  0
  4  6  1  0  0  0  0
  5  3  1  0  0  0  0
  5 33  1  0  0  0  0
  6  5  2  0  0  0  0
  7  6  1  0  0  0  0
  7  9  1  0  0  0  0
  8  7  2  0  0  0  0
  9 11  2  0  0  0  0
 10  8  1  0  0  0  0
 10 13  2  0  0  0  0
 11 14  1  0  0  0  0
 12  9  1  0  0  0  0
 12 15  2  0  0  0  0
 13 12  1  0  0  0  0
 15 14  1  0  0  0  0
 16 13  1  0  0  0  0
 16 17  2  0  0  0  0
 18 20  2  0  0  0  0
 18 16  1  0  0  0  0
 19 35  1  0  0  0  0
 19 17  1  0  0  0  0
 20 19  1  0  0  0  0
 21 20  1  0  0  0  0
 22 21  1  0  0  0  0
 23 21  2  0  0  0  0
 23 25  1  0  0  0  0
 24 22  2  0  0  0  0
 24 26  1  0  0  0  0
 26 23  1  0  0  0  0
 27 37  1  0  0  0  0
 27 25  2  0  0  0  0
 28 26  2  0  0  0  0
 28 27  1  0  0  0  0
 30  2  1  0  0  0  0
 32  4  1  0  0  0  0
 34  8  1  0  0  0  0
 36 24  1  0  0  0  0
 38 28  1  0  0  0  0
M  END
$$$$
scan_sander_basal/min_pdbs/min_pdb_C306_045.pdb
 OpenBabel09051719393D

 38 43  0  0  0  0  0  0  0  0999 V2000
   -0.3450    0.1130    0.4540 C   0  0  0  0  0  0  0  0  0  0  0  0
    0.3170    0.3700   -0.7550 C   0  0  0  0  0  0  0  0  0  0  0  0
   -0.2500    1.0300    1.5120 C   0  0  0  0  0  0  0  0  0  0  0  0
    1.0790    1.5410   -0.9030 C   0  0  0  0  0  0  0  0  0  0  0  0
    0.5130    2.1990    1.3610 C   0  0  0  0  0  0  0  0  0  0  0  0
    1.2070    2.4730    0.1570 C   0  0  0  0  0  0  0  0  0  0  0  0
    1.9920    3.7340   -0.0370 C   0  0  0  0  0  0  0  0  0  0  0  0
    1.8940    4.4590   -1.2470 C   0  0  0  0  0  0  0  0  0  0  0  0
    2.8200    4.3120    0.9550 C   0  0  0  0  0  0  0  0  0  0  0  0
    2.5400    5.6180   -1.4860 N   0  0  0  0  0  0  0  0  0  0  0  0
    3.0470    3.7680    2.1690 N   0  0  0  0  0  0  0  0  0  0  0  0
    3.4940    5.5050    0.7150 C   0  0  0  0  0  0  0  0  0  0  0  0
    3.3440    6.1530   -0.5360 C   0  0  0  0  0  0  0  0  0  0  0  0
    4.0710    4.8000    2.9170 S   0  0  0  0  0  0  0  0  0  0  0  0
    4.2520    5.9300    1.7500 N   0  0  0  0  0  0  0  0  0  0  0  0
    4.0040    7.4260   -0.8950 C   0  0  0  0  0  0  0  0  0  0  0  0
    4.9240    8.0430   -0.1610 N   0  0  0  0  0  0  0  0  0  0  0  0
    3.5840    8.2390   -2.3990 B   0  0  0  0  0  0  0  0  0  0  0  0
    5.3600    9.2060   -0.7570 C   0  0  0  0  0  0  0  0  0  0  0  0
    4.7540    9.4480   -1.9630 C   0  0  0  0  0  0  0  0  0  0  0  0
    5.0680   10.6160   -2.7360 C   0  0  0  0  0  0  0  0  0  0  0  0
    3.9090   11.7150   -3.5120 C   0  0  0  0  0  0  0  0  0  0  0  0
    6.3440   11.0640   -2.9590 C   0  0  0  0  0  0  0  0  0  0  0  0
    5.2110   12.7570   -4.1320 C   0  0  0  0  0  0  0  0  0  0  0  0
    7.8690   10.3670   -2.4950 S   0  0  0  0  0  0  0  0  0  0  0  0
    6.3960   12.2150   -3.7230 C   0  0  0  0  0  0  0  0  0  0  0  0
    8.6390   11.7370   -3.3580 C   0  0  0  0  0  0  0  0  0  0  0  0
    7.7380   12.6140   -3.9530 C   0  0  0  0  0  0  0  0  0  0  0  0
   -0.9350   -0.7920    0.5700 H   0  0  0  0  0  0  0  0  0  0  0  0
    0.2410   -0.3360   -1.5770 H   0  0  0  0  0  0  0  0  0  0  0  0
   -0.7700    0.8370    2.4460 H   0  0  0  0  0  0  0  0  0  0  0  0
    1.5890    1.7230   -1.8440 H   0  0  0  0  0  0  0  0  0  0  0  0
    0.5600    2.9060    2.1830 H   0  0  0  0  0  0  0  0  0  0  0  0
    1.2560    4.1000   -2.0540 H   0  0  0  0  0  0  0  0  0  0  0  0
    6.1010    9.8160   -0.2570 H   0  0  0  0  0  0  0  0  0  0  0  0
    5.0100   13.6340   -4.7300 H   0  0  0  0  0  0  0  0  0  0  0  0
    9.7200   11.7920   -3.3720 H   0  0  0  0  0  0  0  0  0  0  0  0
    8.0140   13.4910   -4.5270 H   0  0  0  0  0  0  0  0  0  0  0  0
  1 29  1  0  0  0  0
  1  3  2  0  0  0  0
  2  1  1  0  0  0  0
  3 31  1  0  0  0  0
  4  2  2  0  0  0  0
  4  6  1  0  0  0  0
  5  3  1  0  0  0  0
  5 33  1  0  0  0  0
  6  5  2  0  0  0  0
  7  6  1  0  0  0  0
  7  9  1  0  0  0  0
  8  7  2  0  0  0  0
  9 11  2  0  0  0  0
 10  8  1  0  0  0  0
 10 13  2  0  0  0  0
 11 14  1  0  0  0  0
 12  9  1  0  0  0  0
 12 15  2  0  0  0  0
 13 12  1  0  0  0  0
 15 14  1  0  0  0  0
 16 13  1  0  0  0  0
 16 17  2  0  0  0  0
 18 20  2  0  0  0  0
 18 16  1  0  0  0  0
 19 35  1  0  0  0  0
 19 17  1  0  0  0  0
 20 19  1  0  0  0  0
 21 20  1  0  0  0  0
 22 21  2  0  0  0  0
 23 21  1  0  0  0  0
 23 25  2  0  0  0  0
 24 26  2  0  0  0  0
 24 22  1  0  0  0  0
 26 23  1  0  0  0  0
 27 25  1  0  0  0  0
 28 26  1  0  0  0  0
 28 27  2  0  0  0  0
 30  2  1  0  0  0  0
 32  4  1  0  0  0  0
 34  8  1  0  0  0  0
 36 24  1  0  0  0  0
 37 27  1  0  0  0  0
 38 28  1  0  0  0  0
M  END
$$$$
scan_sander_basal/min_pdbs/min_pdb_C306_060.pdb
 OpenBabel09051719393D

 38 43  0  0  0  0  0  0  0  0999 V2000
   -0.2520    0.0780    0.3610 C   0  0  0  0  0  0  0  0  0  0  0  0
    0.4590    0.3500   -0.8180 C   0  0  0  0  0  0  0  0  0  0  0  0
   -0.2300    1.0000    1.4180 C   0  0  0  0  0  0  0  0  0  0  0  0
    1.1950    1.5410   -0.9340 C   0  0  0  0  0  0  0  0  0  0  0  0
    0.5070    2.1890    1.2980 C   0  0  0  0  0  0  0  0  0  0  0  0
    1.2500    2.4780    0.1270 C   0  0  0  0  0  0  0  0  0  0  0  0
    2.0090    3.7590   -0.0350 C   0  0  0  0  0  0  0  0  0  0  0  0
    1.9470    4.4790   -1.2510 C   0  0  0  0  0  0  0  0  0  0  0  0
    2.7740    4.3620    0.9920 C   0  0  0  0  0  0  0  0  0  0  0  0
    2.5730    5.6530   -1.4650 N   0  0  0  0  0  0  0  0  0  0  0  0
    2.9590    3.8280    2.2170 N   0  0  0  0  0  0  0  0  0  0  0  0
    3.4260    5.5720    0.7780 C   0  0  0  0  0  0  0  0  0  0  0  0
    3.3180    6.2130   -0.4810 C   0  0  0  0  0  0  0  0  0  0  0  0
    3.9190    4.8890    3.0080 S   0  0  0  0  0  0  0  0  0  0  0  0
    4.1230    6.0190    1.8460 N   0  0  0  0  0  0  0  0  0  0  0  0
    3.9600    7.5010   -0.8140 C   0  0  0  0  0  0  0  0  0  0  0  0
    4.8290    8.1450   -0.0400 N   0  0  0  0  0  0  0  0  0  0  0  0
    3.5880    8.2980   -2.3400 B   0  0  0  0  0  0  0  0  0  0  0  0
    5.2580    9.3180   -0.6170 C   0  0  0  0  0  0  0  0  0  0  0  0
    4.6950    9.5420   -1.8470 C   0  0  0  0  0  0  0  0  0  0  0  0
    5.0280   10.7160   -2.5960 C   0  0  0  0  0  0  0  0  0  0  0  0
    3.9290   12.0000   -3.1380 C   0  0  0  0  0  0  0  0  0  0  0  0
    6.3040   11.0030   -2.9940 C   0  0  0  0  0  0  0  0  0  0  0  0
    5.2610   12.8990   -3.9070 C   0  0  0  0  0  0  0  0  0  0  0  0
    7.7650   10.0900   -2.7640 S   0  0  0  0  0  0  0  0  0  0  0  0
    6.4070   12.1830   -3.7040 C   0  0  0  0  0  0  0  0  0  0  0  0
    8.5920   11.3960   -3.6760 C   0  0  0  0  0  0  0  0  0  0  0  0
    7.7480   12.4170   -4.1020 C   0  0  0  0  0  0  0  0  0  0  0  0
   -0.8220   -0.8420    0.4530 H   0  0  0  0  0  0  0  0  0  0  0  0
    0.4400   -0.3600   -1.6390 H   0  0  0  0  0  0  0  0  0  0  0  0
   -0.7880    0.7960    2.3280 H   0  0  0  0  0  0  0  0  0  0  0  0
    1.7440    1.7330   -1.8510 H   0  0  0  0  0  0  0  0  0  0  0  0
    0.4970    2.8990    2.1190 H   0  0  0  0  0  0  0  0  0  0  0  0
    1.3580    4.1000   -2.0860 H   0  0  0  0  0  0  0  0  0  0  0  0
    5.9670    9.9480   -0.0950 H   0  0  0  0  0  0  0  0  0  0  0  0
    5.1010   13.8330   -4.4250 H   0  0  0  0  0  0  0  0  0  0  0  0
    9.6580   11.3120   -3.8370 H   0  0  0  0  0  0  0  0  0  0  0  0
    8.0640   13.2850   -4.6700 H   0  0  0  0  0  0  0  0  0  0  0  0
  1 29  1  0  0  0  0
  1  3  2  0  0  0  0
  2  1  1  0  0  0  0
  3 31  1  0  0  0  0
  4  2  2  0  0  0  0
  4  6  1  0  0  0  0
  5  3  1  0  0  0  0
  5 33  1  0  0  0  0
  6  5  2  0  0  0  0
  7  6  1  0  0  0  0
  7  9  1  0  0  0  0
  8  7  2  0  0  0  0
  9 11  2  0  0  0  0
 10  8  1  0  0  0  0
 10 13  2  0  0  0  0
 11 14  1  0  0  0  0
 12  9  1  0  0  0  0
 12 15  2  0  0  0  0
 13 12  1  0  0  0  0
 15 14  1  0  0  0  0
 16 13  1  0  0  0  0
 16 17  2  0  0  0  0
 18 20  2  0  0  0  0
 18 16  1  0  0  0  0
 19 35  1  0  0  0  0
 19 17  1  0  0  0  0
 20 19  1  0  0  0  0
 21 20  1  0  0  0  0
 22 21  1  0  0  0  0
 23 25  1  0  0  0  0
 23 21  2  0  0  0  0
 24 26  1  0  0  0  0
 24 22  2  0  0  0  0
 26 23  1  0  0  0  0
 27 25  2  0  0  0  0
 28 26  2  0  0  0  0
 28 27  1  0  0  0  0
 30  2  1  0  0  0  0
 32  4  1  0  0  0  0
 34  8  1  0  0  0  0
 36 24  1  0  0  0  0
 37 27  1  0  0  0  0
 38 28  1  0  0  0  0
M  END
$$$$
scan_sander_basal/min_pdbs/min_pdb_C306_075.pdb
 OpenBabel09051719393D

 38 43  0  0  0  0  0  0  0  0999 V2000
   -0.1630    0.0530    0.2580 C   0  0  0  0  0  0  0  0  0  0  0  0
    0.6110    0.3330   -0.8770 C   0  0  0  0  0  0  0  0  0  0  0  0
   -0.2270    0.9810    1.3080 C   0  0  0  0  0  0  0  0  0  0  0  0
    1.3250    1.5400   -0.9590 C   0  0  0  0  0  0  0  0  0  0  0  0
    0.4880    2.1870    1.2230 C   0  0  0  0  0  0  0  0  0  0  0  0
    1.2930    2.4860    0.0960 C   0  0  0  0  0  0  0  0  0  0  0  0
    2.0310    3.7830   -0.0300 C   0  0  0  0  0  0  0  0  0  0  0  0
    2.0260    4.4930   -1.2530 C   0  0  0  0  0  0  0  0  0  0  0  0
    2.7180    4.4110    1.0370 C   0  0  0  0  0  0  0  0  0  0  0  0
    2.6360    5.6810   -1.4380 N   0  0  0  0  0  0  0  0  0  0  0  0
    2.8410    3.8890    2.2740 N   0  0  0  0  0  0  0  0  0  0  0  0
    3.3540    5.6340    0.8530 C   0  0  0  0  0  0  0  0  0  0  0  0
    3.3070    6.2640   -0.4160 C   0  0  0  0  0  0  0  0  0  0  0  0
    3.7270    4.9770    3.1140 S   0  0  0  0  0  0  0  0  0  0  0  0
    3.9740    6.1050    1.9570 N   0  0  0  0  0  0  0  0  0  0  0  0
    3.9370    7.5650   -0.7190 C   0  0  0  0  0  0  0  0  0  0  0  0
    4.7420    8.2350    0.1010 N   0  0  0  0  0  0  0  0  0  0  0  0
    3.6400    8.3440   -2.2720 B   0  0  0  0  0  0  0  0  0  0  0  0
    5.1760    9.4160   -0.4580 C   0  0  0  0  0  0  0  0  0  0  0  0
    4.6790    9.6190   -1.7180 C   0  0  0  0  0  0  0  0  0  0  0  0
    5.0370   10.7950   -2.4490 C   0  0  0  0  0  0  0  0  0  0  0  0
    4.0400   12.2270   -2.7700 C   0  0  0  0  0  0  0  0  0  0  0  0
    6.2650   10.9480   -3.0250 C   0  0  0  0  0  0  0  0  0  0  0  0
    5.3510   13.0050   -3.6920 C   0  0  0  0  0  0  0  0  0  0  0  0
    7.6170    9.8600   -3.0350 S   0  0  0  0  0  0  0  0  0  0  0  0
    6.4150   12.1470   -3.6920 C   0  0  0  0  0  0  0  0  0  0  0  0
    8.4660   11.1060   -4.0080 C   0  0  0  0  0  0  0  0  0  0  0  0
    7.7070   12.2430   -4.2690 C   0  0  0  0  0  0  0  0  0  0  0  0
   -0.7170   -0.8800    0.3230 H   0  0  0  0  0  0  0  0  0  0  0  0
    0.6580   -0.3830   -1.6930 H   0  0  0  0  0  0  0  0  0  0  0  0
   -0.8340    0.7700    2.1840 H   0  0  0  0  0  0  0  0  0  0  0  0
    1.9230    1.7400   -1.8430 H   0  0  0  0  0  0  0  0  0  0  0  0
    0.4120    2.9020    2.0360 H   0  0  0  0  0  0  0  0  0  0  0  0
    1.4970    4.0950   -2.1190 H   0  0  0  0  0  0  0  0  0  0  0  0
    5.8420   10.0640    0.0980 H   0  0  0  0  0  0  0  0  0  0  0  0
    5.2380   13.9810   -4.1410 H   0  0  0  0  0  0  0  0  0  0  0  0
    9.4820   10.9060   -4.3240 H   0  0  0  0  0  0  0  0  0  0  0  0
    8.0480   13.0990   -4.8410 H   0  0  0  0  0  0  0  0  0  0  0  0
  1 29  1  0  0  0  0
  1  3  2  0  0  0  0
  2  1  1  0  0  0  0
  3 31  1  0  0  0  0
  4  2  2  0  0  0  0
  4  6  1  0  0  0  0
  5  3  1  0  0  0  0
  5 33  1  0  0  0  0
  6  5  2  0  0  0  0
  7  6  1  0  0  0  0
  7  9  1  0  0  0  0
  8  7  2  0  0  0  0
  9 11  2  0  0  0  0
 10  8  1  0  0  0  0
 10 13  2  0  0  0  0
 11 14  1  0  0  0  0
 12  9  1  0  0  0  0
 12 15  2  0  0  0  0
 13 12  1  0  0  0  0
 15 14  1  0  0  0  0
 16 13  1  0  0  0  0
 16 17  2  0  0  0  0
 18 20  2  0  0  0  0
 18 16  1  0  0  0  0
 19 35  1  0  0  0  0
 19 17  1  0  0  0  0
 20 19  1  0  0  0  0
 21 20  1  0  0  0  0
 22 21  2  0  0  0  0
 23 21  1  0  0  0  0
 24 22  1  0  0  0  0
 25 23  2  0  0  0  0
 26 24  2  0  0  0  0
 26 23  1  0  0  0  0
 27 25  1  0  0  0  0
 28 27  2  0  0  0  0
 28 26  1  0  0  0  0
 30  2  1  0  0  0  0
 32  4  1  0  0  0  0
 34  8  1  0  0  0  0
 36 24  1  0  0  0  0
 37 27  1  0  0  0  0
 38 28  1  0  0  0  0
M  END
$$$$
scan_sander_basal/min_pdbs/min_pdb_C306_090.pdb
 OpenBabel09051719393D

 38 43  0  0  0  0  0  0  0  0999 V2000
   -0.0940    0.0400    0.1580 C   0  0  0  0  0  0  0  0  0  0  0  0
    0.7490    0.3230   -0.9270 C   0  0  0  0  0  0  0  0  0  0  0  0
   -0.2430    0.9770    1.1910 C   0  0  0  0  0  0  0  0  0  0  0  0
    1.4460    1.5410   -0.9740 C   0  0  0  0  0  0  0  0  0  0  0  0
    0.4570    2.1940    1.1410 C   0  0  0  0  0  0  0  0  0  0  0  0
    1.3290    2.4960    0.0660 C   0  0  0  0  0  0  0  0  0  0  0  0
    2.0520    3.8050   -0.0240 C   0  0  0  0  0  0  0  0  0  0  0  0
    2.1170    4.5030   -1.2530 C   0  0  0  0  0  0  0  0  0  0  0  0
    2.6560    4.4540    1.0790 C   0  0  0  0  0  0  0  0  0  0  0  0
    2.7170    5.7000   -1.4090 N   0  0  0  0  0  0  0  0  0  0  0  0
    2.7060    3.9460    2.3270 N   0  0  0  0  0  0  0  0  0  0  0  0
    3.2820    5.6870    0.9250 C   0  0  0  0  0  0  0  0  0  0  0  0
    3.3090    6.3040   -0.3510 C   0  0  0  0  0  0  0  0  0  0  0  0
    3.5150    5.0580    3.2120 S   0  0  0  0  0  0  0  0  0  0  0  0
    3.8200    6.1790    2.0630 N   0  0  0  0  0  0  0  0  0  0  0  0
    3.9350    7.6130   -0.6260 C   0  0  0  0  0  0  0  0  0  0  0  0
    4.6730    8.3040    0.2390 N   0  0  0  0  0  0  0  0  0  0  0  0
    3.7280    8.3720   -2.2030 B   0  0  0  0  0  0  0  0  0  0  0  0
    5.1230    9.4880   -0.3020 C   0  0  0  0  0  0  0  0  0  0  0  0
    4.7050    9.6710   -1.5930 C   0  0  0  0  0  0  0  0  0  0  0  0
    5.0910   10.8470   -2.3080 C   0  0  0  0  0  0  0  0  0  0  0  0
    4.2390   12.4000   -2.4060 C   0  0  0  0  0  0  0  0  0  0  0  0
    6.2330   10.8980   -3.0540 C   0  0  0  0  0  0  0  0  0  0  0  0
    5.4880   13.0830   -3.4760 C   0  0  0  0  0  0  0  0  0  0  0  0
    7.4310    9.6690   -3.3110 S   0  0  0  0  0  0  0  0  0  0  0  0
    6.4310   12.1140   -3.6760 C   0  0  0  0  0  0  0  0  0  0  0  0
    8.2770   10.8720   -4.3390 C   0  0  0  0  0  0  0  0  0  0  0  0
    7.6310   12.1020   -4.4320 C   0  0  0  0  0  0  0  0  0  0  0  0
   -0.6350   -0.9020    0.1950 H   0  0  0  0  0  0  0  0  0  0  0  0
    0.8620   -0.4000   -1.7300 H   0  0  0  0  0  0  0  0  0  0  0  0
   -0.9030    0.7640    2.0270 H   0  0  0  0  0  0  0  0  0  0  0  0
    2.0990    1.7430   -1.8190 H   0  0  0  0  0  0  0  0  0  0  0  0
    0.3150    2.9150    1.9390 H   0  0  0  0  0  0  0  0  0  0  0  0
    1.6530    4.0880   -2.1470 H   0  0  0  0  0  0  0  0  0  0  0  0
    5.7400   10.1520    0.2900 H   0  0  0  0  0  0  0  0  0  0  0  0
    5.4320   14.0940   -3.8540 H   0  0  0  0  0  0  0  0  0  0  0  0
    9.2070   10.5800   -4.8100 H   0  0  0  0  0  0  0  0  0  0  0  0
    7.9890   12.9490   -5.0060 H   0  0  0  0  0  0  0  0  0  0  0  0
  1 29  1  0  0  0  0
  1  3  2  0  0  0  0
  2  1  1  0  0  0  0
  3 31  1  0  0  0  0
  4  2  2  0  0  0  0
  4  6  1  0  0  0  0
  5  3  1  0  0  0  0
  5 33  1  0  0  0  0
  6  5  2  0  0  0  0
  7  6  1  0  0  0  0
  7  9  1  0  0  0  0
  8  7  2  0  0  0  0
  9 11  2  0  0  0  0
 10  8  1  0  0  0  0
 10 13  2  0  0  0  0
 11 14  1  0  0  0  0
 12  9  1  0  0  0  0
 12 15  2  0  0  0  0
 13 12  1  0  0  0  0
 15 14  1  0  0  0  0
 16 13  1  0  0  0  0
 16 17  2  0  0  0  0
 18 20  2  0  0  0  0
 18 16  1  0  0  0  0
 19 17  1  0  0  0  0
 19 35  1  0  0  0  0
 20 19  1  0  0  0  0
 21 20  1  0  0  0  0
 22 21  2  0  0  0  0
 23 21  1  0  0  0  0
 24 22  1  0  0  0  0
 25 23  2  0  0  0  0
 26 24  2  0  0  0  0
 26 23  1  0  0  0  0
 27 25  1  0  0  0  0
 28 27  2  0  0  0  0
 28 26  1  0  0  0  0
 30  2  1  0  0  0  0
 32  4  1  0  0  0  0
 34  8  1  0  0  0  0
 36 24  1  0  0  0  0
 37 27  1  0  0  0  0
 38 28  1  0  0  0  0
M  END
$$$$
scan_sander_basal/min_pdbs/min_pdb_C306_105.pdb
 OpenBabel09051719393D

 38 43  0  0  0  0  0  0  0  0999 V2000
   -0.0360    0.0320    0.0700 C   0  0  0  0  0  0  0  0  0  0  0  0
    0.8780    0.3110   -0.9570 C   0  0  0  0  0  0  0  0  0  0  0  0
   -0.2690    0.9820    1.0760 C   0  0  0  0  0  0  0  0  0  0  0  0
    1.5620    1.5370   -0.9730 C   0  0  0  0  0  0  0  0  0  0  0  0
    0.4170    2.2070    1.0570 C   0  0  0  0  0  0  0  0  0  0  0  0
    1.3590    2.5050    0.0420 C   0  0  0  0  0  0  0  0  0  0  0  0
    2.0700    3.8220   -0.0180 C   0  0  0  0  0  0  0  0  0  0  0  0
    2.2130    4.5030   -1.2490 C   0  0  0  0  0  0  0  0  0  0  0  0
    2.5870    4.4960    1.1150 C   0  0  0  0  0  0  0  0  0  0  0  0
    2.8090    5.7050   -1.3810 N   0  0  0  0  0  0  0  0  0  0  0  0
    2.5550    4.0060    2.3720 N   0  0  0  0  0  0  0  0  0  0  0  0
    3.2070    5.7340    0.9870 C   0  0  0  0  0  0  0  0  0  0  0  0
    3.3160    6.3330   -0.2930 C   0  0  0  0  0  0  0  0  0  0  0  0
    3.2860    5.1410    3.2940 S   0  0  0  0  0  0  0  0  0  0  0  0
    3.6570    6.2500    2.1530 N   0  0  0  0  0  0  0  0  0  0  0  0
    3.9450    7.6460   -0.5430 C   0  0  0  0  0  0  0  0  0  0  0  0
    4.6110    8.3600    0.3610 N   0  0  0  0  0  0  0  0  0  0  0  0
    3.8410    8.3790   -2.1420 B   0  0  0  0  0  0  0  0  0  0  0  0
    5.0850    9.5400   -0.1650 C   0  0  0  0  0  0  0  0  0  0  0  0
    4.7590    9.6980   -1.4860 C   0  0  0  0  0  0  0  0  0  0  0  0
    5.1770   10.8720   -2.1880 C   0  0  0  0  0  0  0  0  0  0  0  0
    4.5120   12.5130   -2.0690 C   0  0  0  0  0  0  0  0  0  0  0  0
    6.2040   10.8530   -3.0870 C   0  0  0  0  0  0  0  0  0  0  0  0
    5.6730   13.1330   -3.2690 C   0  0  0  0  0  0  0  0  0  0  0  0
    7.2080    9.5260   -3.5800 S   0  0  0  0  0  0  0  0  0  0  0  0
    6.4570   12.0830   -3.6590 C   0  0  0  0  0  0  0  0  0  0  0  0
    8.0400   10.7030   -4.6490 C   0  0  0  0  0  0  0  0  0  0  0  0
    7.5340   11.9980   -4.5780 C   0  0  0  0  0  0  0  0  0  0  0  0
   -0.5670   -0.9160    0.0840 H   0  0  0  0  0  0  0  0  0  0  0  0
    1.0560   -0.4220   -1.7390 H   0  0  0  0  0  0  0  0  0  0  0  0
   -0.9840    0.7720    1.8670 H   0  0  0  0  0  0  0  0  0  0  0  0
    2.2690    1.7350   -1.7720 H   0  0  0  0  0  0  0  0  0  0  0  0
    0.2100    2.9380    1.8320 H   0  0  0  0  0  0  0  0  0  0  0  0
    1.8190    4.0690   -2.1680 H   0  0  0  0  0  0  0  0  0  0  0  0
    5.6490   10.2210    0.4590 H   0  0  0  0  0  0  0  0  0  0  0  0
    5.6860   14.1690   -3.5750 H   0  0  0  0  0  0  0  0  0  0  0  0
    8.8580   10.3480   -5.2620 H   0  0  0  0  0  0  0  0  0  0  0  0
    7.9090   12.8420   -5.1460 H   0  0  0  0  0  0  0  0  0  0  0  0
  1 29  1  0  0  0  0
  1  3  2  0  0  0  0
  2  1  1  0  0  0  0
  3 31  1  0  0  0  0
  4  2  2  0  0  0  0
  4  6  1  0  0  0  0
  5  3  1  0  0  0  0
  5 33  1  0  0  0  0
  6  5  2  0  0  0  0
  7  6  1  0  0  0  0
  7  9  1  0  0  0  0
  8  7  2  0  0  0  0
  9 11  2  0  0  0  0
 10  8  1  0  0  0  0
 10 13  2  0  0  0  0
 11 14  1  0  0  0  0
 12  9  1  0  0  0  0
 12 15  2  0  0  0  0
 13 12  1  0  0  0  0
 15 14  1  0  0  0  0
 16 13  1  0  0  0  0
 16 17  2  0  0  0  0
 18 20  2  0  0  0  0
 18 16  1  0  0  0  0
 19 17  1  0  0  0  0
 19 35  1  0  0  0  0
 20 19  1  0  0  0  0
 21 22  2  0  0  0  0
 21 20  1  0  0  0  0
 23 21  1  0  0  0  0
 24 22  1  0  0  0  0
 25 23  2  0  0  0  0
 26 24  2  0  0  0  0
 26 23  1  0  0  0  0
 27 28  2  0  0  0  0
 27 25  1  0  0  0  0
 28 26  1  0  0  0  0
 30  2  1  0  0  0  0
 32  4  1  0  0  0  0
 34  8  1  0  0  0  0
 36 24  1  0  0  0  0
 37 27  1  0  0  0  0
 38 28  1  0  0  0  0
M  END
$$$$
scan_sander_basal/min_pdbs/min_pdb_C306_120.pdb
 OpenBabel09051719393D

 38 43  0  0  0  0  0  0  0  0999 V2000
    0.0070    0.0240    0.0040 C   0  0  0  0  0  0  0  0  0  0  0  0
    0.9920    0.2900   -0.9590 C   0  0  0  0  0  0  0  0  0  0  0  0
   -0.3070    0.9930    0.9690 C   0  0  0  0  0  0  0  0  0  0  0  0
    1.6660    1.5230   -0.9510 C   0  0  0  0  0  0  0  0  0  0  0  0
    0.3700    2.2240    0.9740 C   0  0  0  0  0  0  0  0  0  0  0  0
    1.3820    2.5090    0.0250 C   0  0  0  0  0  0  0  0  0  0  0  0
    2.0850    3.8310   -0.0100 C   0  0  0  0  0  0  0  0  0  0  0  0
    2.3120    4.4880   -1.2420 C   0  0  0  0  0  0  0  0  0  0  0  0
    2.5120    4.5330    1.1430 C   0  0  0  0  0  0  0  0  0  0  0  0
    2.9070    5.6930   -1.3560 N   0  0  0  0  0  0  0  0  0  0  0  0
    2.3910    4.0700    2.4040 N   0  0  0  0  0  0  0  0  0  0  0  0
    3.1300    5.7740    1.0340 C   0  0  0  0  0  0  0  0  0  0  0  0
    3.3280    6.3480   -0.2470 C   0  0  0  0  0  0  0  0  0  0  0  0
    3.0430    5.2300    3.3530 S   0  0  0  0  0  0  0  0  0  0  0  0
    3.4890    6.3190    2.2180 N   0  0  0  0  0  0  0  0  0  0  0  0
    3.9620    7.6620   -0.4780 C   0  0  0  0  0  0  0  0  0  0  0  0
    4.5540    8.4000    0.4560 N   0  0  0  0  0  0  0  0  0  0  0  0
    3.9700    8.3610   -2.0960 B   0  0  0  0  0  0  0  0  0  0  0  0
    5.0570    9.5730   -0.0590 C   0  0  0  0  0  0  0  0  0  0  0  0
    4.8360    9.7000   -1.4050 C   0  0  0  0  0  0  0  0  0  0  0  0
    5.2830   10.8720   -2.0930 C   0  0  0  0  0  0  0  0  0  0  0  0
    4.8420   12.5600   -1.7670 C   0  0  0  0  0  0  0  0  0  0  0  0
    6.1760   10.8200   -3.1250 C   0  0  0  0  0  0  0  0  0  0  0  0
    5.8970   13.1510   -3.0740 C   0  0  0  0  0  0  0  0  0  0  0  0
    6.9620    9.4440   -3.8360 S   0  0  0  0  0  0  0  0  0  0  0  0
    6.4960   12.0610   -3.6400 C   0  0  0  0  0  0  0  0  0  0  0  0
    7.7770   10.6130   -4.9260 C   0  0  0  0  0  0  0  0  0  0  0  0
    7.4330   11.9420   -4.6990 C   0  0  0  0  0  0  0  0  0  0  0  0
   -0.5160   -0.9280   -0.0010 H   0  0  0  0  0  0  0  0  0  0  0  0
    1.2330   -0.4570   -1.7100 H   0  0  0  0  0  0  0  0  0  0  0  0
   -1.0760    0.7930    1.7100 H   0  0  0  0  0  0  0  0  0  0  0  0
    2.4290    1.7110   -1.7010 H   0  0  0  0  0  0  0  0  0  0  0  0
    0.1010    2.9690    1.7160 H   0  0  0  0  0  0  0  0  0  0  0  0
    1.9910    4.0320   -2.1780 H   0  0  0  0  0  0  0  0  0  0  0  0
    5.5660   10.2730    0.5910 H   0  0  0  0  0  0  0  0  0  0  0  0
    5.9930   14.2030   -3.3050 H   0  0  0  0  0  0  0  0  0  0  0  0
    8.4670   10.2290   -5.6660 H   0  0  0  0  0  0  0  0  0  0  0  0
    7.8260   12.7880   -5.2510 H   0  0  0  0  0  0  0  0  0  0  0  0
  1  3  2  0  0  0  0
  2  4  2  0  0  0  0
  2  1  1  0  0  0  0
  3  5  1  0  0  0  0
  3 31  1  0  0  0  0
  4  6  1  0  0  0  0
  5 33  1  0  0  0  0
  6  5  2  0  0  0  0
  7  6  1  0  0  0  0
  7  9  1  0  0  0  0
  8  7  2  0  0  0  0
  9 11  2  0  0  0  0
 10  8  1  0  0  0  0
 10 13  2  0  0  0  0
 11 14  1  0  0  0  0
 12  9  1  0  0  0  0
 12 15  2  0  0  0  0
 13 12  1  0  0  0  0
 15 14  1  0  0  0  0
 16 13  1  0  0  0  0
 16 17  2  0  0  0  0
 18 20  2  0  0  0  0
 18 16  1  0  0  0  0
 19 17  1  0  0  0  0
 19 35  1  0  0  0  0
 20 19  1  0  0  0  0
 21 22  2  0  0  0  0
 21 20  1  0  0  0  0
 23 21  1  0  0  0  0
 24 22  1  0  0  0  0
 25 23  2  0  0  0  0
 26 23  1  0  0  0  0
 26 24  2  0  0  0  0
 27 28  2  0  0  0  0
 27 25  1  0  0  0  0
 28 26  1  0  0  0  0
 29  1  1  0  0  0  0
 30  2  1  0  0  0  0
 32  4  1  0  0  0  0
 34  8  1  0  0  0  0
 36 24  1  0  0  0  0
 37 27  1  0  0  0  0
 38 28  1  0  0  0  0
M  END
$$$$
scan_sander_basal/min_pdbs/min_pdb_C306_135.pdb
 OpenBabel09051719393D

 38 43  0  0  0  0  0  0  0  0999 V2000
    0.0440    0.0130   -0.0420 C   0  0  0  0  0  0  0  0  0  0  0  0
    1.0970    0.2620   -0.9350 C   0  0  0  0  0  0  0  0  0  0  0  0
   -0.3470    1.0040    0.8700 C   0  0  0  0  0  0  0  0  0  0  0  0
    1.7610    1.5000   -0.9100 C   0  0  0  0  0  0  0  0  0  0  0  0
    0.3190    2.2400    0.8930 C   0  0  0  0  0  0  0  0  0  0  0  0
    1.3990    2.5090    0.0160 C   0  0  0  0  0  0  0  0  0  0  0  0
    2.0940    3.8350   -0.0020 C   0  0  0  0  0  0  0  0  0  0  0  0
    2.4100    4.4620   -1.2300 C   0  0  0  0  0  0  0  0  0  0  0  0
    2.4290    4.5710    1.1610 C   0  0  0  0  0  0  0  0  0  0  0  0
    3.0040    5.6680   -1.3310 N   0  0  0  0  0  0  0  0  0  0  0  0
    2.2160    4.1390    2.4210 N   0  0  0  0  0  0  0  0  0  0  0  0
    3.0460    5.8130    1.0660 C   0  0  0  0  0  0  0  0  0  0  0  0
    3.3360    6.3550   -0.2110 C   0  0  0  0  0  0  0  0  0  0  0  0
    2.7880    5.3290    3.3850 S   0  0  0  0  0  0  0  0  0  0  0  0
    3.3110    6.3910    2.2590 N   0  0  0  0  0  0  0  0  0  0  0  0
    3.9790    7.6670   -0.4290 C   0  0  0  0  0  0  0  0  0  0  0  0
    4.4940    8.4350    0.5270 N   0  0  0  0  0  0  0  0  0  0  0  0
    4.1050    8.3240   -2.0580 B   0  0  0  0  0  0  0  0  0  0  0  0
    5.0300    9.5960    0.0190 C   0  0  0  0  0  0  0  0  0  0  0  0
    4.9200    9.6850   -1.3440 C   0  0  0  0  0  0  0  0  0  0  0  0
    5.4020   10.8540   -2.0200 C   0  0  0  0  0  0  0  0  0  0  0  0
    5.2160   12.5460   -1.5110 C   0  0  0  0  0  0  0  0  0  0  0  0
    6.1510   10.8000   -3.1640 C   0  0  0  0  0  0  0  0  0  0  0  0
    6.1550   13.1350   -2.9030 C   0  0  0  0  0  0  0  0  0  0  0  0
    6.6980    9.4210   -4.0700 S   0  0  0  0  0  0  0  0  0  0  0  0
    6.5470   12.0420   -3.6220 C   0  0  0  0  0  0  0  0  0  0  0  0
    7.5000   10.5930   -5.1660 C   0  0  0  0  0  0  0  0  0  0  0  0
    7.3330   11.9240   -4.7970 C   0  0  0  0  0  0  0  0  0  0  0  0
   -0.4710   -0.9430   -0.0610 H   0  0  0  0  0  0  0  0  0  0  0  0
    1.3990   -0.5030   -1.6460 H   0  0  0  0  0  0  0  0  0  0  0  0
   -1.1690    0.8170    1.5560 H   0  0  0  0  0  0  0  0  0  0  0  0
    2.5780    1.6740   -1.6040 H   0  0  0  0  0  0  0  0  0  0  0  0
   -0.0090    3.0020    1.5930 H   0  0  0  0  0  0  0  0  0  0  0  0
    2.1630    3.9790   -2.1750 H   0  0  0  0  0  0  0  0  0  0  0  0
    5.4810   10.3160    0.6900 H   0  0  0  0  0  0  0  0  0  0  0  0
    6.3470   14.1870   -3.0640 H   0  0  0  0  0  0  0  0  0  0  0  0
    8.0510   10.2080   -6.0140 H   0  0  0  0  0  0  0  0  0  0  0  0
    7.7510   12.7710   -5.3280 H   0  0  0  0  0  0  0  0  0  0  0  0
  1  3  2  0  0  0  0
  2  4  2  0  0  0  0
  2  1  1  0  0  0  0
  3  5  1  0  0  0  0
  3 31  1  0  0  0  0
  4  6  1  0  0  0  0
  5 33  1  0  0  0  0
  6  5  2  0  0  0  0
  7  6  1  0  0  0  0
  7  9  1  0  0  0  0
  8  7  2  0  0  0  0
  9 11  2  0  0  0  0
 10  8  1  0  0  0  0
 10 13  2  0  0  0  0
 11 14  1  0  0  0  0
 12  9  1  0  0  0  0
 12 15  2  0  0  0  0
 13 12  1  0  0  0  0
 15 14  1  0  0  0  0
 16 13  1  0  0  0  0
 16 17  2  0  0  0  0
 18 20  2  0  0  0  0
 18 16  1  0  0  0  0
 19 17  1  0  0  0  0
 19 35  1  0  0  0  0
 20 19  1  0  0  0  0
 21 22  2  0  0  0  0
 21 20  1  0  0  0  0
 23 21  1  0  0  0  0
 24 22  1  0  0  0  0
 25 23  2  0  0  0  0
 26 23  1  0  0  0  0
 26 24  2  0  0  0  0
 27 28  2  0  0  0  0
 27 25  1  0  0  0  0
 28 26  1  0  0  0  0
 29  1  1  0  0  0  0
 30  2  1  0  0  0  0
 32  4  1  0  0  0  0
 34  8  1  0  0  0  0
 36 24  1  0  0  0  0
 37 27  1  0  0  0  0
 38 28  1  0  0  0  0
M  END
$$$$
scan_sander_basal/min_pdbs/min_pdb_C306_150.pdb
 OpenBabel09051719393D

 38 43  0  0  0  0  0  0  0  0999 V2000
    0.0760    0.0000   -0.0710 C   0  0  0  0  0  0  0  0  0  0  0  0
    1.1940    0.2270   -0.8860 C   0  0  0  0  0  0  0  0  0  0  0  0
   -0.3890    1.0170    0.7770 C   0  0  0  0  0  0  0  0  0  0  0  0
    1.8500    1.4690   -0.8480 C   0  0  0  0  0  0  0  0  0  0  0  0
    0.2690    2.2570    0.8130 C   0  0  0  0  0  0  0  0  0  0  0  0
    1.4120    2.5050    0.0140 C   0  0  0  0  0  0  0  0  0  0  0  0
    2.1020    3.8340    0.0090 C   0  0  0  0  0  0  0  0  0  0  0  0
    2.5110    4.4230   -1.2100 C   0  0  0  0  0  0  0  0  0  0  0  0
    2.3420    4.6070    1.1700 C   0  0  0  0  0  0  0  0  0  0  0  0
    3.1070    5.6290   -1.3030 N   0  0  0  0  0  0  0  0  0  0  0  0
    2.0330    4.2140    2.4230 N   0  0  0  0  0  0  0  0  0  0  0  0
    2.9600    5.8500    1.0840 C   0  0  0  0  0  0  0  0  0  0  0  0
    3.3480    6.3530   -0.1830 C   0  0  0  0  0  0  0  0  0  0  0  0
    2.5230    5.4370    3.3900 S   0  0  0  0  0  0  0  0  0  0  0  0
    3.1290    6.4670    2.2750 N   0  0  0  0  0  0  0  0  0  0  0  0
    4.0000    7.6620   -0.3910 C   0  0  0  0  0  0  0  0  0  0  0  0
    4.4370    8.4620    0.5760 N   0  0  0  0  0  0  0  0  0  0  0  0
    4.2520    8.2680   -2.0240 B   0  0  0  0  0  0  0  0  0  0  0  0
    5.0060    9.6100    0.0740 C   0  0  0  0  0  0  0  0  0  0  0  0
    5.0080    9.6590   -1.2970 C   0  0  0  0  0  0  0  0  0  0  0  0
    5.5360   10.8210   -1.9600 C   0  0  0  0  0  0  0  0  0  0  0  0
    5.6170   12.4730   -1.3070 C   0  0  0  0  0  0  0  0  0  0  0  0
    6.1310   10.7930   -3.1960 C   0  0  0  0  0  0  0  0  0  0  0  0
    6.4360   13.0850   -2.7610 C   0  0  0  0  0  0  0  0  0  0  0  0
    6.4180    9.4590   -4.2740 S   0  0  0  0  0  0  0  0  0  0  0  0
    6.6090   12.0260   -3.6050 C   0  0  0  0  0  0  0  0  0  0  0  0
    7.2060   10.6390   -5.3690 C   0  0  0  0  0  0  0  0  0  0  0  0
    7.2320   11.9390   -4.8760 C   0  0  0  0  0  0  0  0  0  0  0  0
   -0.4330   -0.9600   -0.0990 H   0  0  0  0  0  0  0  0  0  0  0  0
    1.5540   -0.5580   -1.5460 H   0  0  0  0  0  0  0  0  0  0  0  0
   -1.2620    0.8460    1.4020 H   0  0  0  0  0  0  0  0  0  0  0  0
    2.7170    1.6260   -1.4820 H   0  0  0  0  0  0  0  0  0  0  0  0
   -0.1170    3.0380    1.4600 H   0  0  0  0  0  0  0  0  0  0  0  0
    2.3400    3.9090   -2.1560 H   0  0  0  0  0  0  0  0  0  0  0  0
    5.3980   10.3510    0.7590 H   0  0  0  0  0  0  0  0  0  0  0  0
    6.7270   14.1200   -2.8650 H   0  0  0  0  0  0  0  0  0  0  0  0
    7.6070   10.2810   -6.3080 H   0  0  0  0  0  0  0  0  0  0  0  0
    7.6750   12.7860   -5.3870 H   0  0  0  0  0  0  0  0  0  0  0  0
  1  3  2  0  0  0  0
  2  4  2  0  0  0  0
  2  1  1  0  0  0  0
  3  5  1  0  0  0  0
  3 31  1  0  0  0  0
  4  6  1  0  0  0  0
  5 33  1  0  0  0  0
  6  5  2  0  0  0  0
  7  6  1  0  0  0  0
  7  9  1  0  0  0  0
  8  7  2  0  0  0  0
  9 11  2  0  0  0  0
 10  8  1  0  0  0  0
 10 13  2  0  0  0  0
 11 14  1  0  0  0  0
 12  9  1  0  0  0  0
 12 15  2  0  0  0  0
 13 12  1  0  0  0  0
 15 14  1  0  0  0  0
 16 13  1  0  0  0  0
 16 17  2  0  0  0  0
 18 20  2  0  0  0  0
 18 16  1  0  0  0  0
 19 17  1  0  0  0  0
 19 35  1  0  0  0  0
 20 19  1  0  0  0  0
 21 22  2  0  0  0  0
 21 20  1  0  0  0  0
 23 21  1  0  0  0  0
 24 22  1  0  0  0  0
 25 23  2  0  0  0  0
 26 23  1  0  0  0  0
 26 24  2  0  0  0  0
 27 28  2  0  0  0  0
 27 25  1  0  0  0  0
 28 26  1  0  0  0  0
 29  1  1  0  0  0  0
 30  2  1  0  0  0  0
 32  4  1  0  0  0  0
 34  8  1  0  0  0  0
 36 24  1  0  0  0  0
 37 27  1  0  0  0  0
 38 28  1  0  0  0  0
M  END
$$$$
scan_sander_basal/min_pdbs/min_pdb_C306_165.pdb
 OpenBabel09051719393D

 38 43  0  0  0  0  0  0  0  0999 V2000
    0.1080   -0.0170   -0.0840 C   0  0  0  0  0  0  0  0  0  0  0  0
    1.2890    0.1870   -0.8130 C   0  0  0  0  0  0  0  0  0  0  0  0
   -0.4270    1.0270    0.6850 C   0  0  0  0  0  0  0  0  0  0  0  0
    1.9360    1.4320   -0.7680 C   0  0  0  0  0  0  0  0  0  0  0  0
    0.2220    2.2710    0.7290 C   0  0  0  0  0  0  0  0  0  0  0  0
    1.4270    2.4960    0.0170 C   0  0  0  0  0  0  0  0  0  0  0  0
    2.1120    3.8280    0.0200 C   0  0  0  0  0  0  0  0  0  0  0  0
    2.6170    4.3760   -1.1830 C   0  0  0  0  0  0  0  0  0  0  0  0
    2.2540    4.6450    1.1680 C   0  0  0  0  0  0  0  0  0  0  0  0
    3.2150    5.5800   -1.2700 N   0  0  0  0  0  0  0  0  0  0  0  0
    1.8440    4.2960    2.4050 N   0  0  0  0  0  0  0  0  0  0  0  0
    2.8740    5.8870    1.0870 C   0  0  0  0  0  0  0  0  0  0  0  0
    3.3620    6.3450   -0.1620 C   0  0  0  0  0  0  0  0  0  0  0  0
    2.2510    5.5560    3.3630 S   0  0  0  0  0  0  0  0  0  0  0  0
    2.9440    6.5470    2.2640 N   0  0  0  0  0  0  0  0  0  0  0  0
    4.0260    7.6490   -0.3640 C   0  0  0  0  0  0  0  0  0  0  0  0
    4.3800    8.4870    0.6040 N   0  0  0  0  0  0  0  0  0  0  0  0
    4.4090    8.1990   -1.9900 B   0  0  0  0  0  0  0  0  0  0  0  0
    4.9840    9.6200    0.1070 C   0  0  0  0  0  0  0  0  0  0  0  0
    5.0930    9.6280   -1.2620 C   0  0  0  0  0  0  0  0  0  0  0  0
    5.6830   10.7720   -1.9120 C   0  0  0  0  0  0  0  0  0  0  0  0
    6.0240   12.3480   -1.1590 C   0  0  0  0  0  0  0  0  0  0  0  0
    6.1180   10.7950   -3.2150 C   0  0  0  0  0  0  0  0  0  0  0  0
    6.7290   12.9980   -2.6530 C   0  0  0  0  0  0  0  0  0  0  0  0
    6.1130    9.5520   -4.4350 S   0  0  0  0  0  0  0  0  0  0  0  0
    6.6780   12.0060   -3.5880 C   0  0  0  0  0  0  0  0  0  0  0  0
    6.8920   10.7410   -5.5240 C   0  0  0  0  0  0  0  0  0  0  0  0
    7.1260   11.9780   -4.9340 C   0  0  0  0  0  0  0  0  0  0  0  0
   -0.3940   -0.9800   -0.1190 H   0  0  0  0  0  0  0  0  0  0  0  0
    1.7030   -0.6200   -1.4130 H   0  0  0  0  0  0  0  0  0  0  0  0
   -1.3470    0.8750    1.2420 H   0  0  0  0  0  0  0  0  0  0  0  0
    2.8520    1.5720   -1.3340 H   0  0  0  0  0  0  0  0  0  0  0  0
   -0.2160    3.0740    1.3130 H   0  0  0  0  0  0  0  0  0  0  0  0
    2.5250    3.8260   -2.1200 H   0  0  0  0  0  0  0  0  0  0  0  0
    5.3160   10.3830    0.7990 H   0  0  0  0  0  0  0  0  0  0  0  0
    7.1180   14.0040   -2.7170 H   0  0  0  0  0  0  0  0  0  0  0  0
    7.1300   10.4370   -6.5350 H   0  0  0  0  0  0  0  0  0  0  0  0
    7.5950   12.8210   -5.4290 H   0  0  0  0  0  0  0  0  0  0  0  0
  1  3  2  0  0  0  0
  2  4  2  0  0  0  0
  2  1  1  0  0  0  0
  3  5  1  0  0  0  0
  3 31  1  0  0  0  0
  4  6  1  0  0  0  0
  5 33  1  0  0  0  0
  6  7  1  0  0  0  0
  6  5  2  0  0  0  0
  7  9  1  0  0  0  0
  8  7  2  0  0  0  0
  9 11  2  0  0  0  0
 10  8  1  0  0  0  0
 10 13  2  0  0  0  0
 11 14  1  0  0  0  0
 12  9  1  0  0  0  0
 12 15  2  0  0  0  0
 13 12  1  0  0  0  0
 15 14  1  0  0  0  0
 16 13  1  0  0  0  0
 16 17  2  0  0  0  0
 18 20  2  0  0  0  0
 18 16  1  0  0  0  0
 19 17  1  0  0  0  0
 19 35  1  0  0  0  0
 20 19  1  0  0  0  0
 21 20  1  0  0  0  0
 21 22  2  0  0  0  0
 23 21  1  0  0  0  0
 24 22  1  0  0  0  0
 25 23  2  0  0  0  0
 26 23  1  0  0  0  0
 26 24  2  0  0  0  0
 27 28  2  0  0  0  0
 27 25  1  0  0  0  0
 28 26  1  0  0  0  0
 29  1  1  0  0  0  0
 30  2  1  0  0  0  0
 32  4  1  0  0  0  0
 34  8  1  0  0  0  0
 36 24  1  0  0  0  0
 37 27  1  0  0  0  0
 38 28  1  0  0  0  0
M  END
$$$$
scan_sander_basal/min_pdbs/min_pdb_C306_180.pdb
 OpenBabel09051719393D

 38 43  0  0  0  0  0  0  0  0999 V2000
    0.1390   -0.0330   -0.0860 C   0  0  0  0  0  0  0  0  0  0  0  0
    1.3760    0.1460   -0.7220 C   0  0  0  0  0  0  0  0  0  0  0  0
   -0.4590    1.0380    0.5930 C   0  0  0  0  0  0  0  0  0  0  0  0
    2.0160    1.3950   -0.6730 C   0  0  0  0  0  0  0  0  0  0  0  0
    0.1840    2.2860    0.6410 C   0  0  0  0  0  0  0  0  0  0  0  0
    1.4430    2.4880    0.0230 C   0  0  0  0  0  0  0  0  0  0  0  0
    2.1230    3.8220    0.0290 C   0  0  0  0  0  0  0  0  0  0  0  0
    2.7260    4.3230   -1.1490 C   0  0  0  0  0  0  0  0  0  0  0  0
    2.1690    4.6840    1.1510 C   0  0  0  0  0  0  0  0  0  0  0  0
    3.3280    5.5260   -1.2350 N   0  0  0  0  0  0  0  0  0  0  0  0
    1.6590    4.3830    2.3630 N   0  0  0  0  0  0  0  0  0  0  0  0
    2.7920    5.9250    1.0710 C   0  0  0  0  0  0  0  0  0  0  0  0
    3.3820    6.3350   -0.1500 C   0  0  0  0  0  0  0  0  0  0  0  0
    1.9830    5.6830    3.3000 S   0  0  0  0  0  0  0  0  0  0  0  0
    2.7640    6.6320    2.2230 N   0  0  0  0  0  0  0  0  0  0  0  0
    4.0580    7.6330   -0.3490 C   0  0  0  0  0  0  0  0  0  0  0  0
    4.3300    8.5110    0.6100 N   0  0  0  0  0  0  0  0  0  0  0  0
    4.5740    8.1200   -1.9570 B   0  0  0  0  0  0  0  0  0  0  0  0
    4.9660    9.6280    0.1180 C   0  0  0  0  0  0  0  0  0  0  0  0
    5.1770    9.5900   -1.2390 C   0  0  0  0  0  0  0  0  0  0  0  0
    5.8360   10.7050   -1.8770 C   0  0  0  0  0  0  0  0  0  0  0  0
    6.4240   12.1760   -1.0640 C   0  0  0  0  0  0  0  0  0  0  0  0
    6.1100   10.7990   -3.2210 C   0  0  0  0  0  0  0  0  0  0  0  0
    7.0240   12.8730   -2.5820 C   0  0  0  0  0  0  0  0  0  0  0  0
    5.7870    9.6950   -4.5290 S   0  0  0  0  0  0  0  0  0  0  0  0
    6.7500   11.9770   -3.5730 C   0  0  0  0  0  0  0  0  0  0  0  0
    6.5600   10.8890   -5.6160 C   0  0  0  0  0  0  0  0  0  0  0  0
    7.0130   12.0310   -4.9660 C   0  0  0  0  0  0  0  0  0  0  0  0
   -0.3570   -0.9990   -0.1230 H   0  0  0  0  0  0  0  0  0  0  0  0
    1.8390   -0.6820   -1.2520 H   0  0  0  0  0  0  0  0  0  0  0  0
   -1.4220    0.9050    1.0790 H   0  0  0  0  0  0  0  0  0  0  0  0
    2.9760    1.5160   -1.1670 H   0  0  0  0  0  0  0  0  0  0  0  0
   -0.3030    3.1090    1.1550 H   0  0  0  0  0  0  0  0  0  0  0  0
    2.7130    3.7360   -2.0670 H   0  0  0  0  0  0  0  0  0  0  0  0
    5.2390   10.4180    0.8060 H   0  0  0  0  0  0  0  0  0  0  0  0
    7.5070   13.8390   -2.6220 H   0  0  0  0  0  0  0  0  0  0  0  0
    6.6260   10.6600   -6.6710 H   0  0  0  0  0  0  0  0  0  0  0  0
    7.5070   12.8650   -5.4520 H   0  0  0  0  0  0  0  0  0  0  0  0
  1  3  2  0  0  0  0
  2  4  2  0  0  0  0
  2  1  1  0  0  0  0
  3  5  1  0  0  0  0
  3 31  1  0  0  0  0
  4  6  1  0  0  0  0
  5 33  1  0  0  0  0
  6  7  1  0  0  0  0
  6  5  2  0  0  0  0
  7  9  1  0  0  0  0
  8  7  2  0  0  0  0
  9 11  2  0  0  0  0
 10  8  1  0  0  0  0
 10 13  2  0  0  0  0
 11 14  1  0  0  0  0
 12  9  1  0  0  0  0
 12 15  2  0  0  0  0
 13 12  1  0  0  0  0
 15 14  1  0  0  0  0
 16 13  1  0  0  0  0
 16 17  2  0  0  0  0
 18 20  2  0  0  0  0
 18 16  1  0  0  0  0
 19 17  1  0  0  0  0
 19 35  1  0  0  0  0
 20 19  1  0  0  0  0
 21 20  1  0  0  0  0
 21 22  2  0  0  0  0
 23 21  1  0  0  0  0
 24 22  1  0  0  0  0
 25 23  2  0  0  0  0
 26 23  1  0  0  0  0
 26 24  2  0  0  0  0
 27 28  2  0  0  0  0
 27 25  1  0  0  0  0
 28 26  1  0  0  0  0
 29  1  1  0  0  0  0
 30  2  1  0  0  0  0
 32  4  1  0  0  0  0
 34  8  1  0  0  0  0
 36 24  1  0  0  0  0
 37 27  1  0  0  0  0
 38 28  1  0  0  0  0
M  END
$$$$
scan_sander_basal/min_pdbs/min_pdb_C306_195.pdb
 OpenBabel09051719393D

 38 43  0  0  0  0  0  0  0  0999 V2000
    0.1760   -0.0510   -0.0770 C   0  0  0  0  0  0  0  0  0  0  0  0
    1.4610    0.1080   -0.6170 C   0  0  0  0  0  0  0  0  0  0  0  0
   -0.4770    1.0450    0.5060 C   0  0  0  0  0  0  0  0  0  0  0  0
    2.0920    1.3620   -0.5700 C   0  0  0  0  0  0  0  0  0  0  0  0
    0.1570    2.2980    0.5520 C   0  0  0  0  0  0  0  0  0  0  0  0
    1.4620    2.4800    0.0300 C   0  0  0  0  0  0  0  0  0  0  0  0
    2.1370    3.8170    0.0340 C   0  0  0  0  0  0  0  0  0  0  0  0
    2.8330    4.2700   -1.1110 C   0  0  0  0  0  0  0  0  0  0  0  0
    2.0900    4.7260    1.1190 C   0  0  0  0  0  0  0  0  0  0  0  0
    3.4370    5.4720   -1.1990 N   0  0  0  0  0  0  0  0  0  0  0  0
    1.4830    4.4740    2.2970 N   0  0  0  0  0  0  0  0  0  0  0  0
    2.7150    5.9650    1.0370 C   0  0  0  0  0  0  0  0  0  0  0  0
    3.4010    6.3270   -0.1490 C   0  0  0  0  0  0  0  0  0  0  0  0
    1.7270    5.8140    3.2010 S   0  0  0  0  0  0  0  0  0  0  0  0
    2.5910    6.7210    2.1510 N   0  0  0  0  0  0  0  0  0  0  0  0
    4.0890    7.6190   -0.3470 C   0  0  0  0  0  0  0  0  0  0  0  0
    4.2800    8.5370    0.5930 N   0  0  0  0  0  0  0  0  0  0  0  0
    4.7330    8.0390   -1.9290 B   0  0  0  0  0  0  0  0  0  0  0  0
    4.9480    9.6390    0.1060 C   0  0  0  0  0  0  0  0  0  0  0  0
    5.2560    9.5470   -1.2290 C   0  0  0  0  0  0  0  0  0  0  0  0
    5.9800   10.6250   -1.8570 C   0  0  0  0  0  0  0  0  0  0  0  0
    6.8080   11.9610   -1.0220 C   0  0  0  0  0  0  0  0  0  0  0  0
    6.0970   10.8050   -3.2140 C   0  0  0  0  0  0  0  0  0  0  0  0
    7.3070   12.7120   -2.5510 C   0  0  0  0  0  0  0  0  0  0  0  0
    5.4610    9.8730   -4.5410 S   0  0  0  0  0  0  0  0  0  0  0  0
    6.8160   11.9370   -3.5610 C   0  0  0  0  0  0  0  0  0  0  0  0
    6.2280   11.0670   -5.6320 C   0  0  0  0  0  0  0  0  0  0  0  0
    6.8970   12.0890   -4.9690 C   0  0  0  0  0  0  0  0  0  0  0  0
   -0.3130   -1.0200   -0.1130 H   0  0  0  0  0  0  0  0  0  0  0  0
    1.9670   -0.7390   -1.0730 H   0  0  0  0  0  0  0  0  0  0  0  0
   -1.4760    0.9270    0.9170 H   0  0  0  0  0  0  0  0  0  0  0  0
    3.0880    1.4670   -0.9890 H   0  0  0  0  0  0  0  0  0  0  0  0
   -0.3720    3.1390    0.9890 H   0  0  0  0  0  0  0  0  0  0  0  0
    2.8950    3.6450   -2.0010 H   0  0  0  0  0  0  0  0  0  0  0  0
    5.1660   10.4580    0.7790 H   0  0  0  0  0  0  0  0  0  0  0  0
    7.8830   13.6260   -2.5830 H   0  0  0  0  0  0  0  0  0  0  0  0
    6.1250   10.9300   -6.7010 H   0  0  0  0  0  0  0  0  0  0  0  0
    7.4150   12.9080   -5.4550 H   0  0  0  0  0  0  0  0  0  0  0  0
  1  3  2  0  0  0  0
  2  4  2  0  0  0  0
  2  1  1  0  0  0  0
  3  5  1  0  0  0  0
  3 31  1  0  0  0  0
  4  6  1  0  0  0  0
  5 33  1  0  0  0  0
  6  7  1  0  0  0  0
  6  5  2  0  0  0  0
  7  9  1  0  0  0  0
  8  7  2  0  0  0  0
  9 11  2  0  0  0  0
 10  8  1  0  0  0  0
 10 13  2  0  0  0  0
 11 14  1  0  0  0  0
 12  9  1  0  0  0  0
 12 15  2  0  0  0  0
 13 12  1  0  0  0  0
 15 14  1  0  0  0  0
 16 13  1  0  0  0  0
 16 17  2  0  0  0  0
 18 20  2  0  0  0  0
 18 16  1  0  0  0  0
 19 17  1  0  0  0  0
 19 35  1  0  0  0  0
 20 19  1  0  0  0  0
 21 20  1  0  0  0  0
 21 22  2  0  0  0  0
 23 21  1  0  0  0  0
 24 22  1  0  0  0  0
 25 23  2  0  0  0  0
 26 23  1  0  0  0  0
 26 24  2  0  0  0  0
 27 28  2  0  0  0  0
 27 25  1  0  0  0  0
 28 26  1  0  0  0  0
 29  1  1  0  0  0  0
 30  2  1  0  0  0  0
 32  4  1  0  0  0  0
 34  8  1  0  0  0  0
 36 24  1  0  0  0  0
 37 27  1  0  0  0  0
 38 28  1  0  0  0  0
M  END
$$$$
scan_sander_basal/min_pdbs/min_pdb_C306_210.pdb
 OpenBabel09051719393D

 38 43  0  0  0  0  0  0  0  0999 V2000
    0.2140   -0.0680   -0.0570 C   0  0  0  0  0  0  0  0  0  0  0  0
    1.5370    0.0740   -0.5020 C   0  0  0  0  0  0  0  0  0  0  0  0
   -0.4860    1.0480    0.4230 C   0  0  0  0  0  0  0  0  0  0  0  0
    2.1590    1.3330   -0.4610 C   0  0  0  0  0  0  0  0  0  0  0  0
    0.1390    2.3050    0.4640 C   0  0  0  0  0  0  0  0  0  0  0  0
    1.4810    2.4720    0.0380 C   0  0  0  0  0  0  0  0  0  0  0  0
    2.1500    3.8120    0.0360 C   0  0  0  0  0  0  0  0  0  0  0  0
    2.9330    4.2190   -1.0700 C   0  0  0  0  0  0  0  0  0  0  0  0
    2.0160    4.7670    1.0720 C   0  0  0  0  0  0  0  0  0  0  0  0
    3.5390    5.4190   -1.1640 N   0  0  0  0  0  0  0  0  0  0  0  0
    1.3190    4.5630    2.2090 N   0  0  0  0  0  0  0  0  0  0  0  0
    2.6420    6.0060    0.9850 C   0  0  0  0  0  0  0  0  0  0  0  0
    3.4190    6.3190   -0.1580 C   0  0  0  0  0  0  0  0  0  0  0  0
    1.4880    5.9430    3.0700 S   0  0  0  0  0  0  0  0  0  0  0  0
    2.4300    6.8080    2.0520 N   0  0  0  0  0  0  0  0  0  0  0  0
    4.1170    7.6050   -0.3590 C   0  0  0  0  0  0  0  0  0  0  0  0
    4.2310    8.5650    0.5530 N   0  0  0  0  0  0  0  0  0  0  0  0
    4.8820    7.9580   -1.9040 B   0  0  0  0  0  0  0  0  0  0  0  0
    4.9300    9.6490    0.0720 C   0  0  0  0  0  0  0  0  0  0  0  0
    5.3330    9.4990   -1.2300 C   0  0  0  0  0  0  0  0  0  0  0  0
    6.1090   10.5380   -1.8520 C   0  0  0  0  0  0  0  0  0  0  0  0
    7.1680   11.7090   -1.0330 C   0  0  0  0  0  0  0  0  0  0  0  0
    6.0770   10.8190   -3.1940 C   0  0  0  0  0  0  0  0  0  0  0  0
    7.5620   12.5290   -2.5600 C   0  0  0  0  0  0  0  0  0  0  0  0
    5.1660   10.0740   -4.4760 S   0  0  0  0  0  0  0  0  0  0  0  0
    6.8670   11.8970   -3.5510 C   0  0  0  0  0  0  0  0  0  0  0  0
    5.9220   11.2700   -5.5760 C   0  0  0  0  0  0  0  0  0  0  0  0
    6.7830   12.1590   -4.9420 C   0  0  0  0  0  0  0  0  0  0  0  0
   -0.2690   -1.0410   -0.0890 H   0  0  0  0  0  0  0  0  0  0  0  0
    2.0790   -0.7890   -0.8780 H   0  0  0  0  0  0  0  0  0  0  0  0
   -1.5140    0.9420    0.7590 H   0  0  0  0  0  0  0  0  0  0  0  0
    3.1850    1.4250   -0.8050 H   0  0  0  0  0  0  0  0  0  0  0  0
   -0.4240    3.1620    0.8200 H   0  0  0  0  0  0  0  0  0  0  0  0
    3.0660    3.5560   -1.9240 H   0  0  0  0  0  0  0  0  0  0  0  0
    5.0970   10.5010    0.7190 H   0  0  0  0  0  0  0  0  0  0  0  0
    8.2260   13.3810   -2.6010 H   0  0  0  0  0  0  0  0  0  0  0  0
    5.6660   11.2360   -6.6280 H   0  0  0  0  0  0  0  0  0  0  0  0
    7.3220   12.9580   -5.4370 H   0  0  0  0  0  0  0  0  0  0  0  0
  1  3  2  0  0  0  0
  2  4  2  0  0  0  0
  2  1  1  0  0  0  0
  3  5  1  0  0  0  0
  3 31  1  0  0  0  0
  4  6  1  0  0  0  0
  5 33  1  0  0  0  0
  6  5  2  0  0  0  0
  7  6  1  0  0  0  0
  7  9  1  0  0  0  0
  8  7  2  0  0  0  0
  9 11  2  0  0  0  0
 10  8  1  0  0  0  0
 10 13  2  0  0  0  0
 11 14  1  0  0  0  0
 12  9  1  0  0  0  0
 12 15  2  0  0  0  0
 13 12  1  0  0  0  0
 15 14  1  0  0  0  0
 16 13  1  0  0  0  0
 16 17  2  0  0  0  0
 18 20  2  0  0  0  0
 18 16  1  0  0  0  0
 19 17  1  0  0  0  0
 19 35  1  0  0  0  0
 20 19  1  0  0  0  0
 21 20  1  0  0  0  0
 21 22  2  0  0  0  0
 23 21  1  0  0  0  0
 24 22  1  0  0  0  0
 25 23  2  0  0  0  0
 26 23  1  0  0  0  0
 26 24  2  0  0  0  0
 27 28  2  0  0  0  0
 27 25  1  0  0  0  0
 28 26  1  0  0  0  0
 29  1  1  0  0  0  0
 30  2  1  0  0  0  0
 32  4  1  0  0  0  0
 34  8  1  0  0  0  0
 36 24  1  0  0  0  0
 37 27  1  0  0  0  0
 38 28  1  0  0  0  0
M  END
$$$$
scan_sander_basal/min_pdbs/min_pdb_C306_225.pdb
 OpenBabel09051719393D

 38 43  0  0  0  0  0  0  0  0999 V2000
    0.2530   -0.0900   -0.0260 C   0  0  0  0  0  0  0  0  0  0  0  0
    1.6040    0.0420   -0.3760 C   0  0  0  0  0  0  0  0  0  0  0  0
   -0.4860    1.0420    0.3490 C   0  0  0  0  0  0  0  0  0  0  0  0
    2.2170    1.3060   -0.3450 C   0  0  0  0  0  0  0  0  0  0  0  0
    0.1300    2.3040    0.3790 C   0  0  0  0  0  0  0  0  0  0  0  0
    1.4990    2.4610    0.0490 C   0  0  0  0  0  0  0  0  0  0  0  0
    2.1610    3.8040    0.0360 C   0  0  0  0  0  0  0  0  0  0  0  0
    3.0230    4.1670   -1.0250 C   0  0  0  0  0  0  0  0  0  0  0  0
    1.9450    4.8050    1.0150 C   0  0  0  0  0  0  0  0  0  0  0  0
    3.6310    5.3660   -1.1270 N   0  0  0  0  0  0  0  0  0  0  0  0
    1.1650    4.6470    2.1040 N   0  0  0  0  0  0  0  0  0  0  0  0
    2.5710    6.0430    0.9190 C   0  0  0  0  0  0  0  0  0  0  0  0
    3.4310    6.3100   -0.1760 C   0  0  0  0  0  0  0  0  0  0  0  0
    1.2640    6.0660    2.9110 S   0  0  0  0  0  0  0  0  0  0  0  0
    2.2760    6.8910    1.9290 N   0  0  0  0  0  0  0  0  0  0  0  0
    4.1370    7.5910   -0.3830 C   0  0  0  0  0  0  0  0  0  0  0  0
    4.1770    8.5920    0.4920 N   0  0  0  0  0  0  0  0  0  0  0  0
    5.0150    7.8780   -1.8820 B   0  0  0  0  0  0  0  0  0  0  0  0
    4.9050    9.6590    0.0160 C   0  0  0  0  0  0  0  0  0  0  0  0
    5.4060    9.4470   -1.2420 C   0  0  0  0  0  0  0  0  0  0  0  0
    6.2160   10.4550   -1.8620 C   0  0  0  0  0  0  0  0  0  0  0  0
    7.4920   11.4300   -1.1010 C   0  0  0  0  0  0  0  0  0  0  0  0
    6.0540   10.8490   -3.1620 C   0  0  0  0  0  0  0  0  0  0  0  0
    7.7850   12.3360   -2.6040 C   0  0  0  0  0  0  0  0  0  0  0  0
    4.9190   10.2950   -4.3570 S   0  0  0  0  0  0  0  0  0  0  0  0
    6.9100   11.8650   -3.5410 C   0  0  0  0  0  0  0  0  0  0  0  0
    5.6600   11.4960   -5.4630 C   0  0  0  0  0  0  0  0  0  0  0  0
    6.6850   12.2430   -4.8900 C   0  0  0  0  0  0  0  0  0  0  0  0
   -0.2230   -1.0660   -0.0490 H   0  0  0  0  0  0  0  0  0  0  0  0
    2.1770   -0.8330   -0.6710 H   0  0  0  0  0  0  0  0  0  0  0  0
   -1.5360    0.9440    0.6110 H   0  0  0  0  0  0  0  0  0  0  0  0
    3.2660    1.3900   -0.6150 H   0  0  0  0  0  0  0  0  0  0  0  0
   -0.4620    3.1720    0.6530 H   0  0  0  0  0  0  0  0  0  0  0  0
    3.2240    3.4670   -1.8360 H   0  0  0  0  0  0  0  0  0  0  0  0
    5.0220   10.5430    0.6300 H   0  0  0  0  0  0  0  0  0  0  0  0
    8.5300   13.1160   -2.6700 H   0  0  0  0  0  0  0  0  0  0  0  0
    5.2760   11.5710   -6.4720 H   0  0  0  0  0  0  0  0  0  0  0  0
    7.2430   13.0210   -5.3970 H   0  0  0  0  0  0  0  0  0  0  0  0
  1  3  2  0  0  0  0
  2  4  2  0  0  0  0
  2  1  1  0  0  0  0
  3  5  1  0  0  0  0
  3 31  1  0  0  0  0
  4  6  1  0  0  0  0
  5 33  1  0  0  0  0
  6  5  2  0  0  0  0
  7  6  1  0  0  0  0
  7  9  1  0  0  0  0
  8  7  2  0  0  0  0
  9 11  2  0  0  0  0
 10  8  1  0  0  0  0
 10 13  2  0  0  0  0
 11 14  1  0  0  0  0
 12  9  1  0  0  0  0
 12 15  2  0  0  0  0
 13 12  1  0  0  0  0
 15 14  1  0  0  0  0
 16 13  1  0  0  0  0
 16 17  2  0  0  0  0
 18 20  2  0  0  0  0
 18 16  1  0  0  0  0
 19 17  1  0  0  0  0
 19 35  1  0  0  0  0
 20 19  1  0  0  0  0
 21 20  1  0  0  0  0
 21 22  2  0  0  0  0
 23 21  1  0  0  0  0
 24 22  1  0  0  0  0
 25 23  2  0  0  0  0
 26 23  1  0  0  0  0
 26 24  2  0  0  0  0
 27 28  2  0  0  0  0
 27 25  1  0  0  0  0
 28 26  1  0  0  0  0
 29  1  1  0  0  0  0
 30  2  1  0  0  0  0
 32  4  1  0  0  0  0
 34  8  1  0  0  0  0
 36 24  1  0  0  0  0
 37 27  1  0  0  0  0
 38 28  1  0  0  0  0
M  END
$$$$
scan_sander_basal/min_pdbs/min_pdb_C306_240.pdb
 OpenBabel09051719393D

 38 43  0  0  0  0  0  0  0  0999 V2000
    0.2880   -0.1160    0.0200 C   0  0  0  0  0  0  0  0  0  0  0  0
    1.6600    0.0110   -0.2430 C   0  0  0  0  0  0  0  0  0  0  0  0
   -0.4800    1.0260    0.2920 C   0  0  0  0  0  0  0  0  0  0  0  0
    2.2630    1.2790   -0.2280 C   0  0  0  0  0  0  0  0  0  0  0  0
    0.1260    2.2930    0.3060 C   0  0  0  0  0  0  0  0  0  0  0  0
    1.5130    2.4460    0.0630 C   0  0  0  0  0  0  0  0  0  0  0  0
    2.1690    3.7920    0.0350 C   0  0  0  0  0  0  0  0  0  0  0  0
    3.1000    4.1130   -0.9800 C   0  0  0  0  0  0  0  0  0  0  0  0
    1.8810    4.8340    0.9500 C   0  0  0  0  0  0  0  0  0  0  0  0
    3.7070    5.3120   -1.0950 N   0  0  0  0  0  0  0  0  0  0  0  0
    1.0290    4.7190    1.9890 N   0  0  0  0  0  0  0  0  0  0  0  0
    2.5070    6.0710    0.8410 C   0  0  0  0  0  0  0  0  0  0  0  0
    3.4370    6.2960   -0.2040 C   0  0  0  0  0  0  0  0  0  0  0  0
    1.0650    6.1730    2.7360 S   0  0  0  0  0  0  0  0  0  0  0  0
    2.1380    6.9620    1.7890 N   0  0  0  0  0  0  0  0  0  0  0  0
    4.1500    7.5710   -0.4200 C   0  0  0  0  0  0  0  0  0  0  0  0
    4.1250    8.6110    0.4100 N   0  0  0  0  0  0  0  0  0  0  0  0
    5.1280    7.7970   -1.8680 B   0  0  0  0  0  0  0  0  0  0  0  0
    4.8810    9.6610   -0.0610 C   0  0  0  0  0  0  0  0  0  0  0  0
    5.4730    9.3900   -1.2660 C   0  0  0  0  0  0  0  0  0  0  0  0
    6.3070   10.3740   -1.8870 C   0  0  0  0  0  0  0  0  0  0  0  0
    7.7720   11.1300   -1.2290 C   0  0  0  0  0  0  0  0  0  0  0  0
    6.0340   10.8940   -3.1210 C   0  0  0  0  0  0  0  0  0  0  0  0
    7.9770   12.1370   -2.6840 C   0  0  0  0  0  0  0  0  0  0  0  0
    4.7140   10.5480   -4.1960 S   0  0  0  0  0  0  0  0  0  0  0  0
    6.9460   11.8450   -3.5320 C   0  0  0  0  0  0  0  0  0  0  0  0
    5.4430   11.7600   -5.2990 C   0  0  0  0  0  0  0  0  0  0  0  0
    6.6040   12.3530   -4.8110 C   0  0  0  0  0  0  0  0  0  0  0  0
   -0.1800   -1.0960    0.0080 H   0  0  0  0  0  0  0  0  0  0  0  0
    2.2560   -0.8720   -0.4580 H   0  0  0  0  0  0  0  0  0  0  0  0
   -1.5450    0.9310    0.4860 H   0  0  0  0  0  0  0  0  0  0  0  0
    3.3270    1.3600   -0.4290 H   0  0  0  0  0  0  0  0  0  0  0  0
   -0.4880    3.1670    0.4990 H   0  0  0  0  0  0  0  0  0  0  0  0
    3.3590    3.3790   -1.7430 H   0  0  0  0  0  0  0  0  0  0  0  0
    4.9510   10.5750    0.5150 H   0  0  0  0  0  0  0  0  0  0  0  0
    8.7950   12.8360   -2.7890 H   0  0  0  0  0  0  0  0  0  0  0  0
    4.9510   11.9550   -6.2440 H   0  0  0  0  0  0  0  0  0  0  0  0
    7.1800   13.1090   -5.3320 H   0  0  0  0  0  0  0  0  0  0  0  0
  1  3  2  0  0  0  0
  2  4  2  0  0  0  0
  2  1  1  0  0  0  0
  3  5  1  0  0  0  0
  3 31  1  0  0  0  0
  4  6  1  0  0  0  0
  5 33  1  0  0  0  0
  6  5  2  0  0  0  0
  7  6  1  0  0  0  0
  7  9  1  0  0  0  0
  8  7  2  0  0  0  0
  9 11  2  0  0  0  0
 10  8  1  0  0  0  0
 10 13  2  0  0  0  0
 11 14  1  0  0  0  0
 12  9  1  0  0  0  0
 12 15  2  0  0  0  0
 13 12  1  0  0  0  0
 15 14  1  0  0  0  0
 16 13  1  0  0  0  0
 16 17  2  0  0  0  0
 18 20  2  0  0  0  0
 18 16  1  0  0  0  0
 19 17  1  0  0  0  0
 19 35  1  0  0  0  0
 20 19  1  0  0  0  0
 21 20  1  0  0  0  0
 21 22  2  0  0  0  0
 23 21  1  0  0  0  0
 24 22  1  0  0  0  0
 25 23  2  0  0  0  0
 26 23  1  0  0  0  0
 26 24  2  0  0  0  0
 27 28  2  0  0  0  0
 27 25  1  0  0  0  0
 28 26  1  0  0  0  0
 29  1  1  0  0  0  0
 30  2  1  0  0  0  0
 32  4  1  0  0  0  0
 34  8  1  0  0  0  0
 36 24  1  0  0  0  0
 37 27  1  0  0  0  0
 38 28  1  0  0  0  0
M  END
$$$$
scan_sander_basal/min_pdbs/min_pdb_C306_255.pdb
 OpenBabel09051719393D

 38 43  0  0  0  0  0  0  0  0999 V2000
    0.3230   -0.1500    0.0860 C   0  0  0  0  0  0  0  0  0  0  0  0
    1.7090   -0.0220   -0.0930 C   0  0  0  0  0  0  0  0  0  0  0  0
   -0.4690    0.9960    0.2500 C   0  0  0  0  0  0  0  0  0  0  0  0
    2.3010    1.2520   -0.1000 C   0  0  0  0  0  0  0  0  0  0  0  0
    0.1270    2.2680    0.2430 C   0  0  0  0  0  0  0  0  0  0  0  0
    1.5260    2.4230    0.0840 C   0  0  0  0  0  0  0  0  0  0  0  0
    2.1730    3.7730    0.0330 C   0  0  0  0  0  0  0  0  0  0  0  0
    3.1660    4.0540   -0.9330 C   0  0  0  0  0  0  0  0  0  0  0  0
    1.8190    4.8540    0.8760 C   0  0  0  0  0  0  0  0  0  0  0  0
    3.7720    5.2520   -1.0660 N   0  0  0  0  0  0  0  0  0  0  0  0
    0.9010    4.7820    1.8620 N   0  0  0  0  0  0  0  0  0  0  0  0
    2.4410    6.0910    0.7480 C   0  0  0  0  0  0  0  0  0  0  0  0
    3.4380    6.2740   -0.2430 C   0  0  0  0  0  0  0  0  0  0  0  0
    0.8780    6.2700    2.5380 S   0  0  0  0  0  0  0  0  0  0  0  0
    2.0050    7.0230    1.6250 N   0  0  0  0  0  0  0  0  0  0  0  0
    4.1550    7.5450   -0.4740 C   0  0  0  0  0  0  0  0  0  0  0  0
    4.0680    8.6230    0.3010 N   0  0  0  0  0  0  0  0  0  0  0  0
    5.2240    7.7100   -1.8640 B   0  0  0  0  0  0  0  0  0  0  0  0
    4.8480    9.6560   -0.1680 C   0  0  0  0  0  0  0  0  0  0  0  0
    5.5250    9.3300   -1.3130 C   0  0  0  0  0  0  0  0  0  0  0  0
    6.3810   10.2910   -1.9350 C   0  0  0  0  0  0  0  0  0  0  0  0
    7.9910   10.8220   -1.4120 C   0  0  0  0  0  0  0  0  0  0  0  0
    6.0240   10.9490   -3.0760 C   0  0  0  0  0  0  0  0  0  0  0  0
    8.1320   11.9440   -2.7900 C   0  0  0  0  0  0  0  0  0  0  0  0
    4.5630   10.8250   -4.0050 S   0  0  0  0  0  0  0  0  0  0  0  0
    6.9820   11.8380   -3.5220 C   0  0  0  0  0  0  0  0  0  0  0  0
    5.2840   12.0590   -5.0900 C   0  0  0  0  0  0  0  0  0  0  0  0
    6.5510   12.4910   -4.7050 C   0  0  0  0  0  0  0  0  0  0  0  0
   -0.1360   -1.1340    0.0910 H   0  0  0  0  0  0  0  0  0  0  0  0
    2.3240   -0.9080   -0.2250 H   0  0  0  0  0  0  0  0  0  0  0  0
   -1.5430    0.9000    0.3790 H   0  0  0  0  0  0  0  0  0  0  0  0
    3.3750    1.3330   -0.2340 H   0  0  0  0  0  0  0  0  0  0  0  0
   -0.5040    3.1450    0.3530 H   0  0  0  0  0  0  0  0  0  0  0  0
    3.4800    3.2870   -1.6410 H   0  0  0  0  0  0  0  0  0  0  0  0
    4.8720   10.5990    0.3630 H   0  0  0  0  0  0  0  0  0  0  0  0
    9.0050   12.5620   -2.9420 H   0  0  0  0  0  0  0  0  0  0  0  0
    4.7110   12.3850   -5.9480 H   0  0  0  0  0  0  0  0  0  0  0  0
    7.1410   13.2310   -5.2330 H   0  0  0  0  0  0  0  0  0  0  0  0
  1 29  1  0  0  0  0
  1  3  2  0  0  0  0
  2  1  1  0  0  0  0
  3 31  1  0  0  0  0
  4  2  2  0  0  0  0
  4  6  1  0  0  0  0
  5  3  1  0  0  0  0
  5 33  1  0  0  0  0
  6  5  2  0  0  0  0
  7  6  1  0  0  0  0
  7  9  1  0  0  0  0
  8  7  2  0  0  0  0
  9 11  2  0  0  0  0
 10  8  1  0  0  0  0
 10 13  2  0  0  0  0
 11 14  1  0  0  0  0
 12  9  1  0  0  0  0
 12 15  2  0  0  0  0
 13 12  1  0  0  0  0
 15 14  1  0  0  0  0
 16 13  1  0  0  0  0
 16 17  2  0  0  0  0
 18 20  2  0  0  0  0
 18 16  1  0  0  0  0
 19 17  1  0  0  0  0
 19 35  1  0  0  0  0
 20 19  1  0  0  0  0
 21 22  2  0  0  0  0
 21 20  1  0  0  0  0
 23 21  1  0  0  0  0
 24 22  1  0  0  0  0
 25 23  2  0  0  0  0
 26 23  1  0  0  0  0
 26 24  2  0  0  0  0
 27 28  2  0  0  0  0
 27 25  1  0  0  0  0
 28 26  1  0  0  0  0
 30  2  1  0  0  0  0
 32  4  1  0  0  0  0
 34  8  1  0  0  0  0
 36 24  1  0  0  0  0
 37 27  1  0  0  0  0
 38 28  1  0  0  0  0
M  END
$$$$
scan_sander_basal/min_pdbs/min_pdb_C306_270.pdb
 OpenBabel09051719393D

 38 43  0  0  0  0  0  0  0  0999 V2000
    0.3570   -0.1890    0.1720 C   0  0  0  0  0  0  0  0  0  0  0  0
    1.7490   -0.0540    0.0710 C   0  0  0  0  0  0  0  0  0  0  0  0
   -0.4540    0.9550    0.2300 C   0  0  0  0  0  0  0  0  0  0  0  0
    2.3300    1.2240    0.0340 C   0  0  0  0  0  0  0  0  0  0  0  0
    0.1310    2.2320    0.1940 C   0  0  0  0  0  0  0  0  0  0  0  0
    1.5360    2.3940    0.1120 C   0  0  0  0  0  0  0  0  0  0  0  0
    2.1730    3.7470    0.0310 C   0  0  0  0  0  0  0  0  0  0  0  0
    3.2210    3.9910   -0.8870 C   0  0  0  0  0  0  0  0  0  0  0  0
    1.7600    4.8660    0.7950 C   0  0  0  0  0  0  0  0  0  0  0  0
    3.8230    5.1870   -1.0440 N   0  0  0  0  0  0  0  0  0  0  0  0
    0.7840    4.8320    1.7260 N   0  0  0  0  0  0  0  0  0  0  0  0
    2.3790    6.1010    0.6420 C   0  0  0  0  0  0  0  0  0  0  0  0
    3.4320    6.2460   -0.2960 C   0  0  0  0  0  0  0  0  0  0  0  0
    0.7080    6.3520    2.3230 S   0  0  0  0  0  0  0  0  0  0  0  0
    1.8820    7.0710    1.4430 N   0  0  0  0  0  0  0  0  0  0  0  0
    4.1500    7.5120   -0.5470 C   0  0  0  0  0  0  0  0  0  0  0  0
    4.0080    8.6260    0.1650 N   0  0  0  0  0  0  0  0  0  0  0  0
    5.3010    7.6190   -1.8770 B   0  0  0  0  0  0  0  0  0  0  0  0
    4.8070    9.6430   -0.3080 C   0  0  0  0  0  0  0  0  0  0  0  0
    5.5560    9.2650   -1.3900 C   0  0  0  0  0  0  0  0  0  0  0  0
    6.4350   10.2050   -2.0130 C   0  0  0  0  0  0  0  0  0  0  0  0
    8.1430   10.5160   -1.6480 C   0  0  0  0  0  0  0  0  0  0  0  0
    6.0250   11.0120   -3.0350 C   0  0  0  0  0  0  0  0  0  0  0  0
    8.2470   11.7600   -2.9200 C   0  0  0  0  0  0  0  0  0  0  0  0
    4.4660   11.1220   -3.7880 S   0  0  0  0  0  0  0  0  0  0  0  0
    7.0180   11.8450   -3.5100 C   0  0  0  0  0  0  0  0  0  0  0  0
    5.1890   12.3890   -4.8330 C   0  0  0  0  0  0  0  0  0  0  0  0
    6.5290   12.6550   -4.5670 C   0  0  0  0  0  0  0  0  0  0  0  0
   -0.0940   -1.1770    0.2000 H   0  0  0  0  0  0  0  0  0  0  0  0
    2.3780   -0.9390    0.0210 H   0  0  0  0  0  0  0  0  0  0  0  0
   -1.5330    0.8530    0.2990 H   0  0  0  0  0  0  0  0  0  0  0  0
    3.4100    1.3100   -0.0390 H   0  0  0  0  0  0  0  0  0  0  0  0
   -0.5130    3.1050    0.2210 H   0  0  0  0  0  0  0  0  0  0  0  0
    3.5840    3.1930   -1.5340 H   0  0  0  0  0  0  0  0  0  0  0  0
    4.7900   10.6120    0.1740 H   0  0  0  0  0  0  0  0  0  0  0  0
    9.1600   12.3020   -3.1210 H   0  0  0  0  0  0  0  0  0  0  0  0
    4.5620   12.8550   -5.5820 H   0  0  0  0  0  0  0  0  0  0  0  0
    7.1330   13.3850   -5.0940 H   0  0  0  0  0  0  0  0  0  0  0  0
  1 29  1  0  0  0  0
  1  3  2  0  0  0  0
  2  1  1  0  0  0  0
  3 31  1  0  0  0  0
  4  2  2  0  0  0  0
  4  6  1  0  0  0  0
  5 33  1  0  0  0  0
  5  3  1  0  0  0  0
  6  5  2  0  0  0  0
  7  6  1  0  0  0  0
  7  9  1  0  0  0  0
  8  7  2  0  0  0  0
  9 11  2  0  0  0  0
 10  8  1  0  0  0  0
 10 13  2  0  0  0  0
 11 14  1  0  0  0  0
 12  9  1  0  0  0  0
 12 15  2  0  0  0  0
 13 12  1  0  0  0  0
 15 14  1  0  0  0  0
 16 13  1  0  0  0  0
 16 17  2  0  0  0  0
 18 20  2  0  0  0  0
 18 16  1  0  0  0  0
 19 17  1  0  0  0  0
 19 35  1  0  0  0  0
 20 19  1  0  0  0  0
 21 22  2  0  0  0  0
 21 20  1  0  0  0  0
 23 21  1  0  0  0  0
 24 22  1  0  0  0  0
 25 23  2  0  0  0  0
 26 23  1  0  0  0  0
 26 24  2  0  0  0  0
 27 28  2  0  0  0  0
 27 25  1  0  0  0  0
 28 26  1  0  0  0  0
 30  2  1  0  0  0  0
 32  4  1  0  0  0  0
 34  8  1  0  0  0  0
 36 24  1  0  0  0  0
 37 27  1  0  0  0  0
 38 28  1  0  0  0  0
M  END
$$$$
scan_sander_basal/min_pdbs/min_pdb_C306_285.pdb
 OpenBabel09051719393D

 38 43  0  0  0  0  0  0  0  0999 V2000
    0.3920   -0.2300    0.2720 C   0  0  0  0  0  0  0  0  0  0  0  0
    1.7860   -0.0820    0.2410 C   0  0  0  0  0  0  0  0  0  0  0  0
   -0.4330    0.9040    0.2270 C   0  0  0  0  0  0  0  0  0  0  0  0
    2.3540    1.2010    0.1710 C   0  0  0  0  0  0  0  0  0  0  0  0
    0.1380    2.1850    0.1580 C   0  0  0  0  0  0  0  0  0  0  0  0
    1.5440    2.3630    0.1450 C   0  0  0  0  0  0  0  0  0  0  0  0
    2.1700    3.7180    0.0290 C   0  0  0  0  0  0  0  0  0  0  0  0
    3.2650    3.9290   -0.8410 C   0  0  0  0  0  0  0  0  0  0  0  0
    1.7030    4.8680    0.7110 C   0  0  0  0  0  0  0  0  0  0  0  0
    3.8610    5.1240   -1.0270 N   0  0  0  0  0  0  0  0  0  0  0  0
    0.6780    4.8680    1.5880 N   0  0  0  0  0  0  0  0  0  0  0  0
    2.3150    6.1030    0.5280 C   0  0  0  0  0  0  0  0  0  0  0  0
    3.4160    6.2150   -0.3570 C   0  0  0  0  0  0  0  0  0  0  0  0
    0.5510    6.4160    2.1000 S   0  0  0  0  0  0  0  0  0  0  0  0
    1.7640    7.1050    1.2490 N   0  0  0  0  0  0  0  0  0  0  0  0
    4.1330    7.4760   -0.6350 C   0  0  0  0  0  0  0  0  0  0  0  0
    3.9390    8.6230    0.0090 N   0  0  0  0  0  0  0  0  0  0  0  0
    5.3540    7.5310   -1.9050 B   0  0  0  0  0  0  0  0  0  0  0  0
    4.7500    9.6260   -0.4720 C   0  0  0  0  0  0  0  0  0  0  0  0
    5.5610    9.2050   -1.4930 C   0  0  0  0  0  0  0  0  0  0  0  0
    6.4610   10.1230   -2.1190 C   0  0  0  0  0  0  0  0  0  0  0  0
    8.2230   10.2250   -1.9320 C   0  0  0  0  0  0  0  0  0  0  0  0
    6.0330   11.0790   -2.9950 C   0  0  0  0  0  0  0  0  0  0  0  0
    8.3230   11.5920   -3.0700 C   0  0  0  0  0  0  0  0  0  0  0  0
    4.4240   11.4200   -3.5500 S   0  0  0  0  0  0  0  0  0  0  0  0
    7.0530   11.8610   -3.4980 C   0  0  0  0  0  0  0  0  0  0  0  0
    5.1640   12.7230   -4.5370 C   0  0  0  0  0  0  0  0  0  0  0  0
    6.5450   12.8280   -4.4030 C   0  0  0  0  0  0  0  0  0  0  0  0
   -0.0490   -1.2220    0.3260 H   0  0  0  0  0  0  0  0  0  0  0  0
    2.4270   -0.9590    0.2720 H   0  0  0  0  0  0  0  0  0  0  0  0
   -1.5130    0.7910    0.2420 H   0  0  0  0  0  0  0  0  0  0  0  0
    3.4360    1.2980    0.1530 H   0  0  0  0  0  0  0  0  0  0  0  0
   -0.5150    3.0500    0.1040 H   0  0  0  0  0  0  0  0  0  0  0  0
    3.6710    3.1040   -1.4250 H   0  0  0  0  0  0  0  0  0  0  0  0
    4.6960   10.6180   -0.0430 H   0  0  0  0  0  0  0  0  0  0  0  0
    9.2620   12.0620   -3.3230 H   0  0  0  0  0  0  0  0  0  0  0  0
    4.5140   13.3280   -5.1560 H   0  0  0  0  0  0  0  0  0  0  0  0
    7.1650   13.5520   -4.9200 H   0  0  0  0  0  0  0  0  0  0  0  0
  1 29  1  0  0  0  0
  2 30  1  0  0  0  0
  2  1  1  0  0  0  0
  3 31  1  0  0  0  0
  3  1  2  0  0  0  0
  4  2  2  0  0  0  0
  5  3  1  0  0  0  0
  6  5  2  0  0  0  0
  6  4  1  0  0  0  0
  7  6  1  0  0  0  0
  7  9  1  0  0  0  0
  8  7  2  0  0  0  0
  9 11  2  0  0  0  0
 10  8  1  0  0  0  0
 10 13  2  0  0  0  0
 11 14  1  0  0  0  0
 12  9  1  0  0  0  0
 12 15  2  0  0  0  0
 13 12  1  0  0  0  0
 15 14  1  0  0  0  0
 16 13  1  0  0  0  0
 16 17  2  0  0  0  0
 18 20  2  0  0  0  0
 18 16  1  0  0  0  0
 19 35  1  0  0  0  0
 19 17  1  0  0  0  0
 20 19  1  0  0  0  0
 21 22  2  0  0  0  0
 21 20  1  0  0  0  0
 23 21  1  0  0  0  0
 24 22  1  0  0  0  0
 25 23  2  0  0  0  0
 26 24  2  0  0  0  0
 26 23  1  0  0  0  0
 27 28  2  0  0  0  0
 27 25  1  0  0  0  0
 28 26  1  0  0  0  0
 32  4  1  0  0  0  0
 33  5  1  0  0  0  0
 34  8  1  0  0  0  0
 36 24  1  0  0  0  0
 37 27  1  0  0  0  0
 38 28  1  0  0  0  0
M  END
$$$$
scan_sander_basal/min_pdbs/min_pdb_C306_300.pdb
 OpenBabel09051719393D

 38 43  0  0  0  0  0  0  0  0999 V2000
    0.4330   -0.2720    0.3780 C   0  0  0  0  0  0  0  0  0  0  0  0
    1.8250   -0.1020    0.4060 C   0  0  0  0  0  0  0  0  0  0  0  0
   -0.4040    0.8450    0.2400 C   0  0  0  0  0  0  0  0  0  0  0  0
    2.3770    1.1850    0.3000 C   0  0  0  0  0  0  0  0  0  0  0  0
    0.1510    2.1300    0.1350 C   0  0  0  0  0  0  0  0  0  0  0  0
    1.5530    2.3300    0.1800 C   0  0  0  0  0  0  0  0  0  0  0  0
    2.1640    3.6890    0.0280 C   0  0  0  0  0  0  0  0  0  0  0  0
    3.2960    3.8770   -0.7990 C   0  0  0  0  0  0  0  0  0  0  0  0
    1.6480    4.8630    0.6300 C   0  0  0  0  0  0  0  0  0  0  0  0
    3.8820    5.0710   -1.0160 N   0  0  0  0  0  0  0  0  0  0  0  0
    0.5830    4.8870    1.4570 N   0  0  0  0  0  0  0  0  0  0  0  0
    2.2500    6.0980    0.4150 C   0  0  0  0  0  0  0  0  0  0  0  0
    3.3900    6.1850   -0.4220 C   0  0  0  0  0  0  0  0  0  0  0  0
    0.4090    6.4550    1.8870 S   0  0  0  0  0  0  0  0  0  0  0  0
    1.6510    7.1240    1.0600 N   0  0  0  0  0  0  0  0  0  0  0  0
    4.0990    7.4440   -0.7290 C   0  0  0  0  0  0  0  0  0  0  0  0
    3.8570    8.6180   -0.1520 N   0  0  0  0  0  0  0  0  0  0  0  0
    5.3770    7.4590   -1.9420 B   0  0  0  0  0  0  0  0  0  0  0  0
    4.6720    9.6100   -0.6490 C   0  0  0  0  0  0  0  0  0  0  0  0
    5.5320    9.1570   -1.6140 C   0  0  0  0  0  0  0  0  0  0  0  0
    6.4510   10.0550   -2.2480 C   0  0  0  0  0  0  0  0  0  0  0  0
    8.2230    9.9600   -2.2570 C   0  0  0  0  0  0  0  0  0  0  0  0
    6.0440   11.1520   -2.9560 C   0  0  0  0  0  0  0  0  0  0  0  0
    8.3570   11.4370   -3.2430 C   0  0  0  0  0  0  0  0  0  0  0  0
    4.4350   11.7120   -3.2960 S   0  0  0  0  0  0  0  0  0  0  0  0
    7.0880   11.8810   -3.4880 C   0  0  0  0  0  0  0  0  0  0  0  0
    5.2130   13.0440   -4.2130 C   0  0  0  0  0  0  0  0  0  0  0  0
    6.6040   12.9940   -4.2230 C   0  0  0  0  0  0  0  0  0  0  0  0
    0.0040   -1.2670    0.4590 H   0  0  0  0  0  0  0  0  0  0  0  0
    2.4760   -0.9670    0.5090 H   0  0  0  0  0  0  0  0  0  0  0  0
   -1.4830    0.7140    0.2080 H   0  0  0  0  0  0  0  0  0  0  0  0
    3.4570    1.2990    0.3280 H   0  0  0  0  0  0  0  0  0  0  0  0
   -0.5120    2.9810    0.0090 H   0  0  0  0  0  0  0  0  0  0  0  0
    3.7420    3.0320   -1.3230 H   0  0  0  0  0  0  0  0  0  0  0  0
    4.5830   10.6200   -0.2690 H   0  0  0  0  0  0  0  0  0  0  0  0
    9.3120   11.8380   -3.5530 H   0  0  0  0  0  0  0  0  0  0  0  0
    4.5770   13.7780   -4.6900 H   0  0  0  0  0  0  0  0  0  0  0  0
    7.2460   13.7060   -4.7290 H   0  0  0  0  0  0  0  0  0  0  0  0
  1  2  1  0  0  0  0
  1 29  1  0  0  0  0
  2 30  1  0  0  0  0
  3  1  2  0  0  0  0
  4 32  1  0  0  0  0
  4  2  2  0  0  0  0
  5  6  2  0  0  0  0
  5  3  1  0  0  0  0
  6  4  1  0  0  0  0
  7  6  1  0  0  0  0
  7  9  1  0  0  0  0
  8  7  2  0  0  0  0
  9 11  2  0  0  0  0
 10  8  1  0  0  0  0
 10 13  2  0  0  0  0
 11 14  1  0  0  0  0
 12  9  1  0  0  0  0
 12 15  2  0  0  0  0
 13 12  1  0  0  0  0
 15 14  1  0  0  0  0
 16 13  1  0  0  0  0
 16 17  2  0  0  0  0
 18 20  2  0  0  0  0
 18 16  1  0  0  0  0
 19 35  1  0  0  0  0
 19 17  1  0  0  0  0
 20 19  1  0  0  0  0
 21 20  1  0  0  0  0
 22 21  2  0  0  0  0
 23 21  1  0  0  0  0
 24 22  1  0  0  0  0
 25 23  2  0  0  0  0
 26 24  2  0  0  0  0
 26 23  1  0  0  0  0
 27 25  1  0  0  0  0
 28 27  2  0  0  0  0
 28 26  1  0  0  0  0
 31  3  1  0  0  0  0
 33  5  1  0  0  0  0
 34  8  1  0  0  0  0
 36 24  1  0  0  0  0
 37 27  1  0  0  0  0
 38 28  1  0  0  0  0
M  END
$$$$
scan_sander_basal/min_pdbs/min_pdb_C306_315.pdb
 OpenBabel09051719393D

 38 43  0  0  0  0  0  0  0  0999 V2000
    0.4910   -0.3170    0.4870 C   0  0  0  0  0  0  0  0  0  0  0  0
    1.8780   -0.1160    0.5550 C   0  0  0  0  0  0  0  0  0  0  0  0
   -0.3640    0.7740    0.2720 C   0  0  0  0  0  0  0  0  0  0  0  0
    2.4070    1.1770    0.4130 C   0  0  0  0  0  0  0  0  0  0  0  0
    0.1690    2.0660    0.1310 C   0  0  0  0  0  0  0  0  0  0  0  0
    1.5640    2.2990    0.2150 C   0  0  0  0  0  0  0  0  0  0  0  0
    2.1520    3.6630    0.0260 C   0  0  0  0  0  0  0  0  0  0  0  0
    3.3080    3.8400   -0.7700 C   0  0  0  0  0  0  0  0  0  0  0  0
    1.5910    4.8490    0.5580 C   0  0  0  0  0  0  0  0  0  0  0  0
    3.8780    5.0360   -1.0180 N   0  0  0  0  0  0  0  0  0  0  0  0
    0.4980    4.8860    1.3470 N   0  0  0  0  0  0  0  0  0  0  0  0
    2.1750    6.0870    0.3110 C   0  0  0  0  0  0  0  0  0  0  0  0
    3.3420    6.1630   -0.4900 C   0  0  0  0  0  0  0  0  0  0  0  0
    0.2770    6.4660    1.7020 S   0  0  0  0  0  0  0  0  0  0  0  0
    1.5330    7.1260    0.8910 N   0  0  0  0  0  0  0  0  0  0  0  0
    4.0360    7.4240   -0.8260 C   0  0  0  0  0  0  0  0  0  0  0  0
    3.7500    8.6150   -0.3100 N   0  0  0  0  0  0  0  0  0  0  0  0
    5.3540    7.4160   -1.9930 B   0  0  0  0  0  0  0  0  0  0  0  0
    4.5590    9.6030   -0.8230 C   0  0  0  0  0  0  0  0  0  0  0  0
    5.4590    9.1330   -1.7460 C   0  0  0  0  0  0  0  0  0  0  0  0
    6.3930   10.0090   -2.3930 C   0  0  0  0  0  0  0  0  0  0  0  0
    8.1300    9.7230   -2.6200 C   0  0  0  0  0  0  0  0  0  0  0  0
    6.0580   11.2320   -2.9140 C   0  0  0  0  0  0  0  0  0  0  0  0
    8.3490   11.2880   -3.4380 C   0  0  0  0  0  0  0  0  0  0  0  0
    4.5060   12.0070   -3.0320 S   0  0  0  0  0  0  0  0  0  0  0  0
    7.1280   11.8980   -3.4820 C   0  0  0  0  0  0  0  0  0  0  0  0
    5.3530   13.3440   -3.8740 C   0  0  0  0  0  0  0  0  0  0  0  0
    6.7190   13.1380   -4.0380 C   0  0  0  0  0  0  0  0  0  0  0  0
    0.0800   -1.3170    0.5970 H   0  0  0  0  0  0  0  0  0  0  0  0
    2.5420   -0.9610    0.7170 H   0  0  0  0  0  0  0  0  0  0  0  0
   -1.4370    0.6190    0.2100 H   0  0  0  0  0  0  0  0  0  0  0  0
    3.4820    1.3160    0.4720 H   0  0  0  0  0  0  0  0  0  0  0  0
   -0.5060    2.8960   -0.0540 H   0  0  0  0  0  0  0  0  0  0  0  0
    3.7890    2.9830   -1.2410 H   0  0  0  0  0  0  0  0  0  0  0  0
    4.4410   10.6220   -0.4780 H   0  0  0  0  0  0  0  0  0  0  0  0
    9.3090   11.6120   -3.8130 H   0  0  0  0  0  0  0  0  0  0  0  0
    4.7720   14.1970   -4.1990 H   0  0  0  0  0  0  0  0  0  0  0  0
    7.3950   13.8260   -4.5330 H   0  0  0  0  0  0  0  0  0  0  0  0
  1  2  1  0  0  0  0
  1 29  1  0  0  0  0
  2 30  1  0  0  0  0
  3  1  2  0  0  0  0
  4 32  1  0  0  0  0
  4  2  2  0  0  0  0
  5  6  2  0  0  0  0
  5  3  1  0  0  0  0
  6  4  1  0  0  0  0
  7  6  1  0  0  0  0
  7  9  1  0  0  0  0
  8  7  2  0  0  0  0
  9 11  2  0  0  0  0
 10  8  1  0  0  0  0
 10 13  2  0  0  0  0
 11 14  1  0  0  0  0
 12  9  1  0  0  0  0
 12 15  2  0  0  0  0
 13 12  1  0  0  0  0
 15 14  1  0  0  0  0
 16 13  1  0  0  0  0
 16 17  2  0  0  0  0
 18 20  2  0  0  0  0
 18 16  1  0  0  0  0
 19 35  1  0  0  0  0
 19 17  1  0  0  0  0
 20 19  1  0  0  0  0
 21 20  1  0  0  0  0
 22 21  2  0  0  0  0
 23 21  1  0  0  0  0
 24 22  1  0  0  0  0
 25 23  2  0  0  0  0
 26 24  2  0  0  0  0
 26 23  1  0  0  0  0
 27 25  1  0  0  0  0
 28 27  2  0  0  0  0
 28 26  1  0  0  0  0
 31  3  1  0  0  0  0
 33  5  1  0  0  0  0
 34  8  1  0  0  0  0
 36 24  1  0  0  0  0
 37 27  1  0  0  0  0
 38 28  1  0  0  0  0
M  END
$$$$
scan_sander_basal/min_pdbs/min_pdb_C306_330.pdb
 OpenBabel09051719393D

 38 43  0  0  0  0  0  0  0  0999 V2000
    0.5640   -0.3600    0.5790 C   0  0  0  0  0  0  0  0  0  0  0  0
    1.9430   -0.1210    0.6760 C   0  0  0  0  0  0  0  0  0  0  0  0
   -0.3110    0.7020    0.3040 C   0  0  0  0  0  0  0  0  0  0  0  0
    2.4440    1.1790    0.5040 C   0  0  0  0  0  0  0  0  0  0  0  0
    0.1930    2.0010    0.1330 C   0  0  0  0  0  0  0  0  0  0  0  0
    1.5790    2.2720    0.2450 C   0  0  0  0  0  0  0  0  0  0  0  0
    2.1390    3.6430    0.0240 C   0  0  0  0  0  0  0  0  0  0  0  0
    3.3110    3.8220   -0.7460 C   0  0  0  0  0  0  0  0  0  0  0  0
    1.5350    4.8320    0.5010 C   0  0  0  0  0  0  0  0  0  0  0  0
    3.8580    5.0240   -1.0200 N   0  0  0  0  0  0  0  0  0  0  0  0
    0.4200    4.8680    1.2590 N   0  0  0  0  0  0  0  0  0  0  0  0
    2.0950    6.0750    0.2270 C   0  0  0  0  0  0  0  0  0  0  0  0
    3.2810    6.1540   -0.5450 C   0  0  0  0  0  0  0  0  0  0  0  0
    0.1520    6.4530    1.5540 S   0  0  0  0  0  0  0  0  0  0  0  0
    1.4130    7.1160    0.7530 N   0  0  0  0  0  0  0  0  0  0  0  0
    3.9530    7.4190   -0.9050 C   0  0  0  0  0  0  0  0  0  0  0  0
    3.6260    8.6190   -0.4390 N   0  0  0  0  0  0  0  0  0  0  0  0
    5.3010    7.4080   -2.0350 B   0  0  0  0  0  0  0  0  0  0  0  0
    4.4210    9.6110   -0.9680 C   0  0  0  0  0  0  0  0  0  0  0  0
    5.3550    9.1380   -1.8570 C   0  0  0  0  0  0  0  0  0  0  0  0
    6.2970    9.9950   -2.5280 C   0  0  0  0  0  0  0  0  0  0  0  0
    7.9440    9.5310   -3.0060 C   0  0  0  0  0  0  0  0  0  0  0  0
    6.0800   11.3090   -2.8650 C   0  0  0  0  0  0  0  0  0  0  0  0
    8.2860   11.1440   -3.6670 C   0  0  0  0  0  0  0  0  0  0  0  0
    4.6420   12.2850   -2.7420 S   0  0  0  0  0  0  0  0  0  0  0  0
    7.1630   11.9000   -3.4920 C   0  0  0  0  0  0  0  0  0  0  0  0
    5.5750   13.5940   -3.5330 C   0  0  0  0  0  0  0  0  0  0  0  0
    6.8740   13.2360   -3.8730 C   0  0  0  0  0  0  0  0  0  0  0  0
    0.1740   -1.3650    0.7120 H   0  0  0  0  0  0  0  0  0  0  0  0
    2.6220   -0.9430    0.8850 H   0  0  0  0  0  0  0  0  0  0  0  0
   -1.3790    0.5180    0.2190 H   0  0  0  0  0  0  0  0  0  0  0  0
    3.5130    1.3480    0.5860 H   0  0  0  0  0  0  0  0  0  0  0  0
   -0.4970    2.8070   -0.0990 H   0  0  0  0  0  0  0  0  0  0  0  0
    3.8260    2.9620   -1.1750 H   0  0  0  0  0  0  0  0  0  0  0  0
    4.2700   10.6300   -0.6410 H   0  0  0  0  0  0  0  0  0  0  0  0
    9.2320   11.3890   -4.1280 H   0  0  0  0  0  0  0  0  0  0  0  0
    5.0850   14.5440   -3.7050 H   0  0  0  0  0  0  0  0  0  0  0  0
    7.5840   13.8840   -4.3750 H   0  0  0  0  0  0  0  0  0  0  0  0
  1  2  1  0  0  0  0
  1 29  1  0  0  0  0
  2 30  1  0  0  0  0
  3  1  2  0  0  0  0
  4 32  1  0  0  0  0
  4  2  2  0  0  0  0
  5  6  2  0  0  0  0
  5  3  1  0  0  0  0
  6  4  1  0  0  0  0
  7  6  1  0  0  0  0
  7  9  1  0  0  0  0
  8  7  2  0  0  0  0
  9 11  2  0  0  0  0
 10  8  1  0  0  0  0
 10 13  2  0  0  0  0
 11 14  1  0  0  0  0
 12  9  1  0  0  0  0
 12 15  2  0  0  0  0
 13 12  1  0  0  0  0
 15 14  1  0  0  0  0
 16 13  1  0  0  0  0
 16 17  2  0  0  0  0
 18 20  2  0  0  0  0
 18 16  1  0  0  0  0
 19 35  1  0  0  0  0
 19 17  1  0  0  0  0
 20 19  1  0  0  0  0
 21 20  1  0  0  0  0
 22 21  2  0  0  0  0
 23 25  2  0  0  0  0
 23 21  1  0  0  0  0
 24 26  2  0  0  0  0
 24 22  1  0  0  0  0
 26 23  1  0  0  0  0
 27 25  1  0  0  0  0
 28 27  2  0  0  0  0
 28 26  1  0  0  0  0
 31  3  1  0  0  0  0
 33  5  1  0  0  0  0
 34  8  1  0  0  0  0
 36 24  1  0  0  0  0
 37 27  1  0  0  0  0
 38 28  1  0  0  0  0
M  END
$$$$
scan_sander_basal/min_pdbs/min_pdb_C306_345.pdb
 OpenBabel09051719393D

 38 43  0  0  0  0  0  0  0  0999 V2000
   -0.7890    0.4270    0.7280 C   0  0  0  0  0  0  0  0  0  0  0  0
   -0.3180    0.6570   -0.5730 C   0  0  0  0  0  0  0  0  0  0  0  0
   -0.3680    1.2550    1.7800 C   0  0  0  0  0  0  0  0  0  0  0  0
    0.5770    1.7100   -0.8200 C   0  0  0  0  0  0  0  0  0  0  0  0
    0.5270    2.3070    1.5300 C   0  0  0  0  0  0  0  0  0  0  0  0
    1.0330    2.5480    0.2280 C   0  0  0  0  0  0  0  0  0  0  0  0
    1.9560    3.6900   -0.0650 C   0  0  0  0  0  0  0  0  0  0  0  0
    1.7600    4.4930   -1.2120 C   0  0  0  0  0  0  0  0  0  0  0  0
    3.0260    4.0810    0.7770 C   0  0  0  0  0  0  0  0  0  0  0  0
    2.5260    5.5560   -1.5300 N   0  0  0  0  0  0  0  0  0  0  0  0
    3.3760    3.4380    1.9100 N   0  0  0  0  0  0  0  0  0  0  0  0
    3.8230    5.1730    0.4550 C   0  0  0  0  0  0  0  0  0  0  0  0
    3.5590    5.9090   -0.7270 C   0  0  0  0  0  0  0  0  0  0  0  0
    4.6630    4.2630    2.4910 S   0  0  0  0  0  0  0  0  0  0  0  0
    4.8090    5.4200    1.3470 N   0  0  0  0  0  0  0  0  0  0  0  0
    4.3360    7.0890   -1.1600 C   0  0  0  0  0  0  0  0  0  0  0  0
    5.4550    7.5200   -0.5910 N   0  0  0  0  0  0  0  0  0  0  0  0
    3.7950    8.0430   -2.5330 B   0  0  0  0  0  0  0  0  0  0  0  0
    5.9470    8.6480   -1.2090 C   0  0  0  0  0  0  0  0  0  0  0  0
    5.1700    9.0770   -2.2610 C   0  0  0  0  0  0  0  0  0  0  0  0
    5.4700   10.2280   -3.0780 C   0  0  0  0  0  0  0  0  0  0  0  0
    4.7340   10.5360   -4.6680 C   0  0  0  0  0  0  0  0  0  0  0  0
    6.3690   11.2340   -2.7980 C   0  0  0  0  0  0  0  0  0  0  0  0
    5.6660   12.0270   -4.9030 C   0  0  0  0  0  0  0  0  0  0  0  0
    7.3320   11.5520   -1.3800 S   0  0  0  0  0  0  0  0  0  0  0  0
    6.4430   12.1950   -3.7950 C   0  0  0  0  0  0  0  0  0  0  0  0
    7.9060   13.0360   -2.1990 C   0  0  0  0  0  0  0  0  0  0  0  0
    7.3430   13.2380   -3.4530 C   0  0  0  0  0  0  0  0  0  0  0  0
   -1.4820   -0.3870    0.9210 H   0  0  0  0  0  0  0  0  0  0  0  0
   -0.6460    0.0190   -1.3900 H   0  0  0  0  0  0  0  0  0  0  0  0
   -0.7390    1.0850    2.7870 H   0  0  0  0  0  0  0  0  0  0  0  0
    0.9350    1.8710   -1.8320 H   0  0  0  0  0  0  0  0  0  0  0  0
    0.8270    2.9500    2.3520 H   0  0  0  0  0  0  0  0  0  0  0  0
    0.9420    4.2800   -1.9010 H   0  0  0  0  0  0  0  0  0  0  0  0
    6.8730    9.0620   -0.8420 H   0  0  0  0  0  0  0  0  0  0  0  0
    5.5590   12.6400   -5.7870 H   0  0  0  0  0  0  0  0  0  0  0  0
    8.6190   13.6670   -1.6850 H   0  0  0  0  0  0  0  0  0  0  0  0
    7.5500   14.0860   -4.0950 H   0  0  0  0  0  0  0  0  0  0  0  0
  1 29  1  0  0  0  0
  1  3  2  0  0  0  0
  2  1  1  0  0  0  0
  3 31  1  0  0  0  0
  4  2  2  0  0  0  0
  4  6  1  0  0  0  0
  5  3  1  0  0  0  0
  5 33  1  0  0  0  0
  6  5  2  0  0  0  0
  7  6  1  0  0  0  0
  7  9  1  0  0  0  0
  8  7  2  0  0  0  0
  9 11  2  0  0  0  0
 10  8  1  0  0  0  0
 10 13  2  0  0  0  0
 11 14  1  0  0  0  0
 12  9  1  0  0  0  0
 12 15  2  0  0  0  0
 13 12  1  0  0  0  0
 15 14  1  0  0  0  0
 16 13  1  0  0  0  0
 16 17  2  0  0  0  0
 18 20  2  0  0  0  0
 18 16  1  0  0  0  0
 19 35  1  0  0  0  0
 19 17  1  0  0  0  0
 20 19  1  0  0  0  0
 21 23  2  0  0  0  0
 21 20  1  0  0  0  0
 22 21  1  0  0  0  0
 23 25  1  0  0  0  0
 24 22  2  0  0  0  0
 24 26  1  0  0  0  0
 26 28  2  0  0  0  0
 26 23  1  0  0  0  0
 27 37  1  0  0  0  0
 27 25  2  0  0  0  0
 28 27  1  0  0  0  0
 30  2  1  0  0  0  0
 32  4  1  0  0  0  0
 34  8  1  0  0  0  0
 36 24  1  0  0  0  0
 38 28  1  0  0  0  0
M  END
$$$$
scan_sander_basal/min_pdbs/min_pdb_C306_360.pdb
 OpenBabel09051719393D

 38 43  0  0  0  0  0  0  0  0999 V2000
   -0.7040    0.3310    0.6290 C   0  0  0  0  0  0  0  0  0  0  0  0
   -0.1730    0.5670   -0.6480 C   0  0  0  0  0  0  0  0  0  0  0  0
   -0.3720    1.1830    1.6920 C   0  0  0  0  0  0  0  0  0  0  0  0
    0.6940    1.6520   -0.8580 C   0  0  0  0  0  0  0  0  0  0  0  0
    0.4950    2.2670    1.4790 C   0  0  0  0  0  0  0  0  0  0  0  0
    1.0600    2.5160    0.2040 C   0  0  0  0  0  0  0  0  0  0  0  0
    1.9550    3.6900   -0.0520 C   0  0  0  0  0  0  0  0  0  0  0  0
    1.7900    4.4750   -1.2170 C   0  0  0  0  0  0  0  0  0  0  0  0
    2.9610    4.1290    0.8420 C   0  0  0  0  0  0  0  0  0  0  0  0
    2.5310    5.5640   -1.5040 N   0  0  0  0  0  0  0  0  0  0  0  0
    3.2740    3.5100    1.9990 N   0  0  0  0  0  0  0  0  0  0  0  0
    3.7330    5.2490    0.5510 C   0  0  0  0  0  0  0  0  0  0  0  0
    3.5040    5.9640   -0.6500 C   0  0  0  0  0  0  0  0  0  0  0  0
    4.4960    4.3890    2.6390 S   0  0  0  0  0  0  0  0  0  0  0  0
    4.6590    5.5410    1.4920 N   0  0  0  0  0  0  0  0  0  0  0  0
    4.2580    7.1690   -1.0540 C   0  0  0  0  0  0  0  0  0  0  0  0
    5.3260    7.6490   -0.4310 N   0  0  0  0  0  0  0  0  0  0  0  0
    3.7570    8.0910   -2.4620 B   0  0  0  0  0  0  0  0  0  0  0  0
    5.8150    8.7840   -1.0400 C   0  0  0  0  0  0  0  0  0  0  0  0
    5.0930    9.1650   -2.1480 C   0  0  0  0  0  0  0  0  0  0  0  0
    5.3850   10.3130   -2.9760 C   0  0  0  0  0  0  0  0  0  0  0  0
    4.4210   10.7610   -4.4030 C   0  0  0  0  0  0  0  0  0  0  0  0
    6.4090   11.2250   -2.8280 C   0  0  0  0  0  0  0  0  0  0  0  0
    5.4350   12.1710   -4.7550 C   0  0  0  0  0  0  0  0  0  0  0  0
    7.6860   11.3490   -1.6470 S   0  0  0  0  0  0  0  0  0  0  0  0
    6.4090   12.2130   -3.8010 C   0  0  0  0  0  0  0  0  0  0  0  0
    8.2460   12.8100   -2.5140 C   0  0  0  0  0  0  0  0  0  0  0  0
    7.4730   13.1330   -3.6210 C   0  0  0  0  0  0  0  0  0  0  0  0
   -1.3740   -0.5080    0.7930 H   0  0  0  0  0  0  0  0  0  0  0  0
   -0.4320   -0.0900   -1.4740 H   0  0  0  0  0  0  0  0  0  0  0  0
   -0.7900    1.0080    2.6800 H   0  0  0  0  0  0  0  0  0  0  0  0
    1.1000    1.8180   -1.8510 H   0  0  0  0  0  0  0  0  0  0  0  0
    0.7260    2.9280    2.3090 H   0  0  0  0  0  0  0  0  0  0  0  0
    1.0190    4.2250   -1.9450 H   0  0  0  0  0  0  0  0  0  0  0  0
    6.6850    9.2450   -0.6040 H   0  0  0  0  0  0  0  0  0  0  0  0
    5.2440   12.8250   -5.5940 H   0  0  0  0  0  0  0  0  0  0  0  0
    9.1170   13.3320   -2.1390 H   0  0  0  0  0  0  0  0  0  0  0  0
    7.6520   13.9810   -4.2730 H   0  0  0  0  0  0  0  0  0  0  0  0
  1 29  1  0  0  0  0
  1  3  2  0  0  0  0
  2  1  1  0  0  0  0
  3 31  1  0  0  0  0
  4  2  2  0  0  0  0
  4  6  1  0  0  0  0
  5  3  1  0  0  0  0
  5 33  1  0  0  0  0
  6  5  2  0  0  0  0
  7  6  1  0  0  0  0
  7  9  1  0  0  0  0
  8  7  2  0  0  0  0
  9 11  2  0  0  0  0
 10  8  1  0  0  0  0
 10 13  2  0  0  0  0
 11 14  1  0  0  0  0
 12  9  1  0  0  0  0
 12 15  2  0  0  0  0
 13 12  1  0  0  0  0
 15 14  1  0  0  0  0
 16 13  1  0  0  0  0
 16 17  2  0  0  0  0
 18 20  2  0  0  0  0
 18 16  1  0  0  0  0
 19 35  1  0  0  0  0
 19 17  1  0  0  0  0
 20 19  1  0  0  0  0
 21 23  2  0  0  0  0
 21 20  1  0  0  0  0
 22 21  1  0  0  0  0
 23 25  1  0  0  0  0
 24 22  2  0  0  0  0
 24 26  1  0  0  0  0
 26 28  2  0  0  0  0
 26 23  1  0  0  0  0
 27 37  1  0  0  0  0
 27 25  2  0  0  0  0
 28 27  1  0  0  0  0
 30  2  1  0  0  0  0
 32  4  1  0  0  0  0
 34  8  1  0  0  0  0
 36 24  1  0  0  0  0
 38 28  1  0  0  0  0
M  END
$$$$
