scan_sander_basal_param/min_pdbs/min_pdb_C169_000.pdb
 OpenBabel10021702133D

 39 44  0  0  1  0  0  0  0  0999 V2000
   -0.5680    0.4000    0.1590 C   0  0  0  0  0  0  0  0  0  0  0  0
   -0.1330    0.9310   -1.0610 C   0  0  0  0  0  0  0  0  0  0  0  0
   -0.1780    1.0360    1.3470 C   0  0  0  0  0  0  0  0  0  0  0  0
    0.6760    2.0760   -1.0380 C   0  0  0  0  0  0  0  0  0  0  0  0
    0.5980    2.1340    1.3600 N   0  0  0  0  0  0  0  0  0  0  0  0
    1.0410    2.6710    0.2000 C   0  0  0  0  0  0  0  0  0  0  0  0
    1.9090    3.9100    0.2560 C   0  0  0  0  0  0  0  0  0  0  0  0
    1.9350    4.6630   -0.8650 N   0  0  0  0  0  0  0  0  0  0  0  0
    2.6950    4.3130    1.3700 C   0  0  0  0  0  0  0  0  0  0  0  0
    2.6810    5.7830   -0.9280 C   0  0  0  0  0  0  0  0  0  0  0  0
    2.8010    3.6320    2.5330 N   0  0  0  0  0  0  0  0  0  0  0  0
    3.4640    5.4750    1.3050 C   0  0  0  0  0  0  0  0  0  0  0  0
    3.4840    6.2730    0.1280 C   0  0  0  0  0  0  0  0  0  0  0  0
    3.8300    4.4940    3.4580 S   0  0  0  0  0  0  0  0  0  0  0  0
    4.1770    5.7140    2.4290 N   0  0  0  0  0  0  0  0  0  0  0  0
    4.3020    7.5140   -0.0250 C   0  0  1  0  0  0  0  0  0  0  0  0
    5.0890    8.3040    1.3670 B   0  0  0  0  0  0  0  0  0  0  0  0
    4.5960    8.2480   -1.2670 C   0  0  0  0  0  0  0  0  0  0  0  0
    5.6890    9.5980    0.3340 C   0  0  0  0  0  0  0  0  0  0  0  0
    4.2520    7.8380   -2.5060 N   0  0  0  0  0  0  0  0  0  0  0  0
    5.3550    9.4080   -1.0700 C   0  0  0  0  0  0  0  0  0  0  0  0
    6.4510   10.7400    0.7920 C   0  0  0  0  0  0  0  0  0  0  0  0
    4.6430    8.6230   -3.5320 C   0  0  0  0  0  0  0  0  0  0  0  0
    5.7580   10.1970   -2.0890 N   0  0  0  0  0  0  0  0  0  0  0  0
    6.7480   10.8580    2.1290 C   0  0  0  0  0  0  0  0  0  0  0  0
    7.1160   12.0820   -0.1420 S   0  0  0  0  0  0  0  0  0  0  0  0
    5.3880    9.8010   -3.3240 C   0  0  0  0  0  0  0  0  0  0  0  0
    7.5130   12.0240    2.4250 C   0  0  0  0  0  0  0  0  0  0  0  0
    7.7960   12.7880    1.3210 C   0  0  0  0  0  0  0  0  0  0  0  0
   -1.1960   -0.4850    0.1880 H   0  0  0  0  0  0  0  0  0  0  0  0
   -0.4150    0.4670   -2.0030 H   0  0  0  0  0  0  0  0  0  0  0  0
   -0.4960    0.6560    2.3170 H   0  0  0  0  0  0  0  0  0  0  0  0
    1.0270    2.5000   -1.9740 H   0  0  0  0  0  0  0  0  0  0  0  0
    2.5720    6.3140   -1.8660 H   0  0  0  0  0  0  0  0  0  0  0  0
    4.3580    8.3030   -4.5340 H   0  0  0  0  0  0  0  0  0  0  0  0
    6.4490   10.1550    2.8970 H   0  0  0  0  0  0  0  0  0  0  0  0
    5.7020   10.4270   -4.1580 H   0  0  0  0  0  0  0  0  0  0  0  0
    7.8380   12.2770    3.4300 H   0  0  0  0  0  0  0  0  0  0  0  0
    8.3550   13.7130    1.2610 H   0  0  0  0  0  0  0  0  0  0  0  0
  1 30  1  0  0  0  0
  1  3  2  0  0  0  0
  2  4  2  0  0  0  0
  2  1  1  0  0  0  0
  3  5  1  0  0  0  0
  3 32  1  0  0  0  0
  4  6  1  0  0  0  0
  6  7  1  0  0  0  0
  6  5  2  0  0  0  0
  7  9  1  0  0  0  0
  8  7  2  0  0  0  0
  9 11  2  0  0  0  0
 10  8  1  0  0  0  0
 10 13  2  0  0  0  0
 11 14  1  0  0  0  0
 12  9  1  0  0  0  0
 12 15  2  0  0  0  0
 13 12  1  0  0  0  0
 15 14  1  0  0  0  0
 16 13  1  6  0  0  0
 16 17  1  0  0  0  0
 18 21  1  0  0  0  0
 18 16  1  0  0  0  0
 19 22  1  0  0  0  0
 19 17  2  0  0  0  0
 20 18  2  0  0  0  0
 21 19  1  0  0  0  0
 22 25  2  0  0  0  0
 23 27  2  0  0  0  0
 23 20  1  0  0  0  0
 24 21  2  0  0  0  0
 25 28  1  0  0  0  0
 25 36  1  0  0  0  0
 26 22  1  0  0  0  0
 26 29  1  0  0  0  0
 27 24  1  0  0  0  0
 28 38  1  0  0  0  0
 29 28  2  0  0  0  0
 31  2  1  0  0  0  0
 33  4  1  0  0  0  0
 34 10  1  0  0  0  0
 35 23  1  0  0  0  0
 37 27  1  0  0  0  0
 39 29  1  0  0  0  0
M  END
$$$$
scan_sander_basal_param/min_pdbs/min_pdb_C169_015.pdb
 OpenBabel10021702133D

 39 44  0  0  1  0  0  0  0  0999 V2000
   -0.6100    0.4300    0.1580 C   0  0  0  0  0  0  0  0  0  0  0  0
   -0.1680    0.9570   -1.0620 C   0  0  0  0  0  0  0  0  0  0  0  0
   -0.2160    1.0610    1.3460 C   0  0  0  0  0  0  0  0  0  0  0  0
    0.6520    2.0950   -1.0360 C   0  0  0  0  0  0  0  0  0  0  0  0
    0.5700    2.1530    1.3610 N   0  0  0  0  0  0  0  0  0  0  0  0
    1.0200    2.6860    0.2020 C   0  0  0  0  0  0  0  0  0  0  0  0
    1.8990    3.9170    0.2600 C   0  0  0  0  0  0  0  0  0  0  0  0
    1.9340    4.6700   -0.8600 N   0  0  0  0  0  0  0  0  0  0  0  0
    2.6870    4.3120    1.3760 C   0  0  0  0  0  0  0  0  0  0  0  0
    2.6910    5.7830   -0.9220 C   0  0  0  0  0  0  0  0  0  0  0  0
    2.7840    3.6300    2.5400 N   0  0  0  0  0  0  0  0  0  0  0  0
    3.4680    5.4660    1.3130 C   0  0  0  0  0  0  0  0  0  0  0  0
    3.4980    6.2630    0.1360 C   0  0  0  0  0  0  0  0  0  0  0  0
    3.8200    4.4820    3.4660 S   0  0  0  0  0  0  0  0  0  0  0  0
    4.1810    5.6980    2.4370 N   0  0  0  0  0  0  0  0  0  0  0  0
    4.3280    7.4960   -0.0170 C   0  0  1  0  0  0  0  0  0  0  0  0
    5.1230    8.2800    1.3750 B   0  0  0  0  0  0  0  0  0  0  0  0
    4.6290    8.2240   -1.2610 C   0  0  0  0  0  0  0  0  0  0  0  0
    5.7060    9.5800    0.3410 C   0  0  0  0  0  0  0  0  0  0  0  0
    4.3120    7.7980   -2.5020 N   0  0  0  0  0  0  0  0  0  0  0  0
    5.3840    9.3850   -1.0630 C   0  0  0  0  0  0  0  0  0  0  0  0
    6.4040   10.7580    0.7990 C   0  0  0  0  0  0  0  0  0  0  0  0
    4.7290    8.5700   -3.5290 C   0  0  0  0  0  0  0  0  0  0  0  0
    5.8240   10.1550   -2.0810 N   0  0  0  0  0  0  0  0  0  0  0  0
    6.9260   10.7800    2.0700 C   0  0  0  0  0  0  0  0  0  0  0  0
    6.6750   12.2810   -0.0490 S   0  0  0  0  0  0  0  0  0  0  0  0
    5.4780    9.7450   -3.3190 C   0  0  0  0  0  0  0  0  0  0  0  0
    7.5660   12.0160    2.3800 C   0  0  0  0  0  0  0  0  0  0  0  0
    7.5230   12.9270    1.3530 C   0  0  0  0  0  0  0  0  0  0  0  0
   -1.2460   -0.4490    0.1850 H   0  0  0  0  0  0  0  0  0  0  0  0
   -0.4520    0.4970   -2.0050 H   0  0  0  0  0  0  0  0  0  0  0  0
   -0.5400    0.6840    2.3160 H   0  0  0  0  0  0  0  0  0  0  0  0
    1.0080    2.5170   -1.9720 H   0  0  0  0  0  0  0  0  0  0  0  0
    2.5900    6.3170   -1.8590 H   0  0  0  0  0  0  0  0  0  0  0  0
    4.4660    8.2380   -4.5320 H   0  0  0  0  0  0  0  0  0  0  0  0
    6.8780    9.9580    2.7740 H   0  0  0  0  0  0  0  0  0  0  0  0
    5.8170   10.3570   -4.1530 H   0  0  0  0  0  0  0  0  0  0  0  0
    8.0400   12.2100    3.3360 H   0  0  0  0  0  0  0  0  0  0  0  0
    7.9280   13.9300    1.3210 H   0  0  0  0  0  0  0  0  0  0  0  0
  1 30  1  0  0  0  0
  1  3  2  0  0  0  0
  2  4  2  0  0  0  0
  2  1  1  0  0  0  0
  3  5  1  0  0  0  0
  3 32  1  0  0  0  0
  4  6  1  0  0  0  0
  6  7  1  0  0  0  0
  6  5  2  0  0  0  0
  7  9  1  0  0  0  0
  8  7  2  0  0  0  0
  9 11  2  0  0  0  0
 10  8  1  0  0  0  0
 10 13  2  0  0  0  0
 11 14  1  0  0  0  0
 12  9  1  0  0  0  0
 12 15  2  0  0  0  0
 13 12  1  0  0  0  0
 15 14  1  0  0  0  0
 16 13  1  6  0  0  0
 16 17  1  0  0  0  0
 18 21  1  0  0  0  0
 18 16  1  0  0  0  0
 19 22  1  0  0  0  0
 19 17  2  0  0  0  0
 20 18  2  0  0  0  0
 21 19  1  0  0  0  0
 22 25  2  0  0  0  0
 23 27  2  0  0  0  0
 23 20  1  0  0  0  0
 24 21  2  0  0  0  0
 25 28  1  0  0  0  0
 25 36  1  0  0  0  0
 26 22  1  0  0  0  0
 26 29  1  0  0  0  0
 27 24  1  0  0  0  0
 28 38  1  0  0  0  0
 29 28  2  0  0  0  0
 31  2  1  0  0  0  0
 33  4  1  0  0  0  0
 34 10  1  0  0  0  0
 35 23  1  0  0  0  0
 37 27  1  0  0  0  0
 39 29  1  0  0  0  0
M  END
$$$$
scan_sander_basal_param/min_pdbs/min_pdb_C169_030.pdb
 OpenBabel10021702133D

 39 44  0  0  1  0  0  0  0  0999 V2000
   -0.6250    0.4340    0.1450 C   0  0  0  0  0  0  0  0  0  0  0  0
   -0.1530    0.9450   -1.0700 C   0  0  0  0  0  0  0  0  0  0  0  0
   -0.2600    1.0800    1.3350 C   0  0  0  0  0  0  0  0  0  0  0  0
    0.6670    2.0830   -1.0390 C   0  0  0  0  0  0  0  0  0  0  0  0
    0.5260    2.1710    1.3550 N   0  0  0  0  0  0  0  0  0  0  0  0
    1.0050    2.6900    0.2020 C   0  0  0  0  0  0  0  0  0  0  0  0
    1.8830    3.9210    0.2660 C   0  0  0  0  0  0  0  0  0  0  0  0
    1.9450    4.6600   -0.8630 N   0  0  0  0  0  0  0  0  0  0  0  0
    2.6430    4.3300    1.3960 C   0  0  0  0  0  0  0  0  0  0  0  0
    2.7030    5.7720   -0.9200 C   0  0  0  0  0  0  0  0  0  0  0  0
    2.7120    3.6620    2.5690 N   0  0  0  0  0  0  0  0  0  0  0  0
    3.4240    5.4840    1.3380 C   0  0  0  0  0  0  0  0  0  0  0  0
    3.4820    6.2670    0.1530 C   0  0  0  0  0  0  0  0  0  0  0  0
    3.7240    4.5260    3.5110 S   0  0  0  0  0  0  0  0  0  0  0  0
    4.1100    5.7300    2.4770 N   0  0  0  0  0  0  0  0  0  0  0  0
    4.3130    7.5000    0.0060 C   0  0  1  0  0  0  0  0  0  0  0  0
    5.0720    8.3030    1.4090 B   0  0  0  0  0  0  0  0  0  0  0  0
    4.6430    8.2120   -1.2410 C   0  0  0  0  0  0  0  0  0  0  0  0
    5.6780    9.5820    0.3670 C   0  0  0  0  0  0  0  0  0  0  0  0
    4.3590    7.7740   -2.4860 N   0  0  0  0  0  0  0  0  0  0  0  0
    5.3910    9.3760   -1.0380 C   0  0  0  0  0  0  0  0  0  0  0  0
    6.3530   10.7730    0.8120 C   0  0  0  0  0  0  0  0  0  0  0  0
    4.8020    8.5370   -3.5080 C   0  0  0  0  0  0  0  0  0  0  0  0
    5.8600   10.1390   -2.0480 N   0  0  0  0  0  0  0  0  0  0  0  0
    7.1020   10.7350    1.9620 C   0  0  0  0  0  0  0  0  0  0  0  0
    6.3080   12.3800    0.0930 S   0  0  0  0  0  0  0  0  0  0  0  0
    5.5460    9.7150   -3.2900 C   0  0  0  0  0  0  0  0  0  0  0  0
    7.6730   12.0010    2.2790 C   0  0  0  0  0  0  0  0  0  0  0  0
    7.3480   12.9880    1.3790 C   0  0  0  0  0  0  0  0  0  0  0  0
   -1.2620   -0.4450    0.1680 H   0  0  0  0  0  0  0  0  0  0  0  0
   -0.4140    0.4730   -2.0140 H   0  0  0  0  0  0  0  0  0  0  0  0
   -0.6080    0.7140    2.3010 H   0  0  0  0  0  0  0  0  0  0  0  0
    1.0460    2.4930   -1.9700 H   0  0  0  0  0  0  0  0  0  0  0  0
    2.6250    6.2950   -1.8650 H   0  0  0  0  0  0  0  0  0  0  0  0
    4.5660    8.1960   -4.5150 H   0  0  0  0  0  0  0  0  0  0  0  0
    7.2590    9.8480    2.5650 H   0  0  0  0  0  0  0  0  0  0  0  0
    5.9070   10.3190   -4.1220 H   0  0  0  0  0  0  0  0  0  0  0  0
    8.3040   12.1630    3.1480 H   0  0  0  0  0  0  0  0  0  0  0  0
    7.6460   14.0290    1.3810 H   0  0  0  0  0  0  0  0  0  0  0  0
  1 30  1  0  0  0  0
  1  3  2  0  0  0  0
  2  4  2  0  0  0  0
  2  1  1  0  0  0  0
  3  5  1  0  0  0  0
  3 32  1  0  0  0  0
  4  6  1  0  0  0  0
  6  7  1  0  0  0  0
  6  5  2  0  0  0  0
  7  9  1  0  0  0  0
  8  7  2  0  0  0  0
  9 11  2  0  0  0  0
 10  8  1  0  0  0  0
 10 13  2  0  0  0  0
 11 14  1  0  0  0  0
 12  9  1  0  0  0  0
 12 15  2  0  0  0  0
 13 12  1  0  0  0  0
 15 14  1  0  0  0  0
 16 13  1  6  0  0  0
 16 17  1  0  0  0  0
 18 21  1  0  0  0  0
 18 16  1  0  0  0  0
 19 22  1  0  0  0  0
 19 17  2  0  0  0  0
 20 18  2  0  0  0  0
 21 19  1  0  0  0  0
 22 25  2  0  0  0  0
 23 27  2  0  0  0  0
 23 20  1  0  0  0  0
 24 21  2  0  0  0  0
 25 28  1  0  0  0  0
 25 36  1  0  0  0  0
 26 22  1  0  0  0  0
 26 29  1  0  0  0  0
 27 24  1  0  0  0  0
 28 38  1  0  0  0  0
 29 39  1  0  0  0  0
 29 28  2  0  0  0  0
 31  2  1  0  0  0  0
 33  4  1  0  0  0  0
 34 10  1  0  0  0  0
 35 23  1  0  0  0  0
 37 27  1  0  0  0  0
M  END
$$$$
scan_sander_basal_param/min_pdbs/min_pdb_C169_045.pdb
 OpenBabel10021702133D

 39 44  0  0  1  0  0  0  0  0999 V2000
   -0.5820    0.3890    0.1190 C   0  0  0  0  0  0  0  0  0  0  0  0
   -0.0580    0.8800   -1.0830 C   0  0  0  0  0  0  0  0  0  0  0  0
   -0.2920    1.0720    1.3080 C   0  0  0  0  0  0  0  0  0  0  0  0
    0.7370    2.0350   -1.0400 C   0  0  0  0  0  0  0  0  0  0  0  0
    0.4720    2.1790    1.3410 N   0  0  0  0  0  0  0  0  0  0  0  0
    0.9990    2.6790    0.2000 C   0  0  0  0  0  0  0  0  0  0  0  0
    1.8500    3.9280    0.2760 C   0  0  0  0  0  0  0  0  0  0  0  0
    1.9570    4.6400   -0.8670 N   0  0  0  0  0  0  0  0  0  0  0  0
    2.5430    4.3810    1.4320 C   0  0  0  0  0  0  0  0  0  0  0  0
    2.6980    5.7640   -0.9140 C   0  0  0  0  0  0  0  0  0  0  0  0
    2.5630    3.7450    2.6260 N   0  0  0  0  0  0  0  0  0  0  0  0
    3.3080    5.5460    1.3830 C   0  0  0  0  0  0  0  0  0  0  0  0
    3.4140    6.2990    0.1820 C   0  0  0  0  0  0  0  0  0  0  0  0
    3.5110    4.6510    3.5940 S   0  0  0  0  0  0  0  0  0  0  0  0
    3.9290    5.8340    2.5480 N   0  0  0  0  0  0  0  0  0  0  0  0
    4.2350    7.5400    0.0440 C   0  0  1  0  0  0  0  0  0  0  0  0
    4.9100    8.3910    1.4650 B   0  0  0  0  0  0  0  0  0  0  0  0
    4.6170    8.2260   -1.2050 C   0  0  0  0  0  0  0  0  0  0  0  0
    5.5810    9.6270    0.4140 C   0  0  0  0  0  0  0  0  0  0  0  0
    4.3780    7.7710   -2.4530 N   0  0  0  0  0  0  0  0  0  0  0  0
    5.3560    9.3930   -0.9950 C   0  0  0  0  0  0  0  0  0  0  0  0
    6.2900   10.8000    0.8410 C   0  0  0  0  0  0  0  0  0  0  0  0
    4.8580    8.5210   -3.4690 C   0  0  0  0  0  0  0  0  0  0  0  0
    5.8560   10.1490   -1.9950 N   0  0  0  0  0  0  0  0  0  0  0  0
    7.2540   10.6920    1.8090 C   0  0  0  0  0  0  0  0  0  0  0  0
    6.0700   12.4490    0.2710 S   0  0  0  0  0  0  0  0  0  0  0  0
    5.5890    9.7050   -3.2410 C   0  0  0  0  0  0  0  0  0  0  0  0
    7.8480   11.9510    2.1150 C   0  0  0  0  0  0  0  0  0  0  0  0
    7.3280   12.9930    1.3830 C   0  0  0  0  0  0  0  0  0  0  0  0
   -1.2020   -0.5020    0.1320 H   0  0  0  0  0  0  0  0  0  0  0  0
   -0.2610    0.3790   -2.0270 H   0  0  0  0  0  0  0  0  0  0  0  0
   -0.6810    0.7240    2.2640 H   0  0  0  0  0  0  0  0  0  0  0  0
    1.1560    2.4290   -1.9610 H   0  0  0  0  0  0  0  0  0  0  0  0
    2.6590    6.2600   -1.8770 H   0  0  0  0  0  0  0  0  0  0  0  0
    4.6590    8.1650   -4.4790 H   0  0  0  0  0  0  0  0  0  0  0  0
    7.5450    9.7630    2.2860 H   0  0  0  0  0  0  0  0  0  0  0  0
    5.9770   10.2980   -4.0680 H   0  0  0  0  0  0  0  0  0  0  0  0
    8.6350   12.0680    2.8530 H   0  0  0  0  0  0  0  0  0  0  0  0
    7.5970   14.0400    1.4140 H   0  0  0  0  0  0  0  0  0  0  0  0
  1 30  1  0  0  0  0
  1  3  2  0  0  0  0
  2  4  2  0  0  0  0
  2  1  1  0  0  0  0
  3  5  1  0  0  0  0
  3 32  1  0  0  0  0
  4  6  1  0  0  0  0
  6  7  1  0  0  0  0
  6  5  2  0  0  0  0
  7  9  1  0  0  0  0
  8  7  2  0  0  0  0
  9 11  2  0  0  0  0
 10  8  1  0  0  0  0
 10 13  2  0  0  0  0
 11 14  1  0  0  0  0
 12  9  1  0  0  0  0
 12 15  2  0  0  0  0
 13 12  1  0  0  0  0
 15 14  1  0  0  0  0
 16 13  1  6  0  0  0
 16 17  1  0  0  0  0
 18 21  1  0  0  0  0
 18 16  1  0  0  0  0
 19 22  1  0  0  0  0
 19 17  2  0  0  0  0
 20 18  2  0  0  0  0
 21 19  1  0  0  0  0
 22 25  2  0  0  0  0
 23 27  2  0  0  0  0
 23 20  1  0  0  0  0
 24 21  2  0  0  0  0
 25 28  1  0  0  0  0
 25 36  1  0  0  0  0
 26 22  1  0  0  0  0
 26 29  1  0  0  0  0
 27 24  1  0  0  0  0
 28 38  1  0  0  0  0
 29 39  1  0  0  0  0
 29 28  2  0  0  0  0
 31  2  1  0  0  0  0
 33  4  1  0  0  0  0
 34 10  1  0  0  0  0
 35 23  1  0  0  0  0
 37 27  1  0  0  0  0
M  END
$$$$
scan_sander_basal_param/min_pdbs/min_pdb_C169_060.pdb
 OpenBabel10021702133D

 39 44  0  0  1  0  0  0  0  0999 V2000
   -0.5990    0.3890    0.1080 C   0  0  0  0  0  0  0  0  0  0  0  0
   -0.0260    0.8520   -1.0820 C   0  0  0  0  0  0  0  0  0  0  0  0
   -0.3530    1.0960    1.2940 C   0  0  0  0  0  0  0  0  0  0  0  0
    0.7700    2.0050   -1.0320 C   0  0  0  0  0  0  0  0  0  0  0  0
    0.4120    2.2020    1.3320 N   0  0  0  0  0  0  0  0  0  0  0  0
    0.9850    2.6760    0.2030 C   0  0  0  0  0  0  0  0  0  0  0  0
    1.8340    3.9250    0.2860 C   0  0  0  0  0  0  0  0  0  0  0  0
    1.9880    4.6130   -0.8660 N   0  0  0  0  0  0  0  0  0  0  0  0
    2.4820    4.4020    1.4590 C   0  0  0  0  0  0  0  0  0  0  0  0
    2.7290    5.7370   -0.9070 C   0  0  0  0  0  0  0  0  0  0  0  0
    2.4560    3.7900    2.6650 N   0  0  0  0  0  0  0  0  0  0  0  0
    3.2450    5.5680    1.4170 C   0  0  0  0  0  0  0  0  0  0  0  0
    3.3960    6.2980    0.2070 C   0  0  0  0  0  0  0  0  0  0  0  0
    3.3650    4.7170    3.6510 S   0  0  0  0  0  0  0  0  0  0  0  0
    3.8210    5.8810    2.6000 N   0  0  0  0  0  0  0  0  0  0  0  0
    4.2130    7.5430    0.0770 C   0  0  1  0  0  0  0  0  0  0  0  0
    4.8250    8.4260    1.5080 B   0  0  0  0  0  0  0  0  0  0  0  0
    4.6420    8.2050   -1.1700 C   0  0  0  0  0  0  0  0  0  0  0  0
    5.5190    9.6480    0.4580 C   0  0  0  0  0  0  0  0  0  0  0  0
    4.4560    7.7280   -2.4190 N   0  0  0  0  0  0  0  0  0  0  0  0
    5.3580    9.3840   -0.9520 C   0  0  0  0  0  0  0  0  0  0  0  0
    6.2240   10.8220    0.8740 C   0  0  0  0  0  0  0  0  0  0  0  0
    4.9640    8.4710   -3.4270 C   0  0  0  0  0  0  0  0  0  0  0  0
    5.8820   10.1370   -1.9410 N   0  0  0  0  0  0  0  0  0  0  0  0
    7.3680   10.7020    1.6180 C   0  0  0  0  0  0  0  0  0  0  0  0
    5.8050   12.4890    0.5110 S   0  0  0  0  0  0  0  0  0  0  0  0
    5.6690    9.6700   -3.1900 C   0  0  0  0  0  0  0  0  0  0  0  0
    7.9360   11.9720    1.9280 C   0  0  0  0  0  0  0  0  0  0  0  0
    7.2210   13.0290    1.4150 C   0  0  0  0  0  0  0  0  0  0  0  0
   -1.2230   -0.5000    0.1160 H   0  0  0  0  0  0  0  0  0  0  0  0
   -0.1940    0.3320   -2.0220 H   0  0  0  0  0  0  0  0  0  0  0  0
   -0.7810    0.7690    2.2410 H   0  0  0  0  0  0  0  0  0  0  0  0
    1.2260    2.3790   -1.9440 H   0  0  0  0  0  0  0  0  0  0  0  0
    2.7290    6.2120   -1.8810 H   0  0  0  0  0  0  0  0  0  0  0  0
    4.8100    8.0980   -4.4380 H   0  0  0  0  0  0  0  0  0  0  0  0
    7.7990    9.7580    1.9320 H   0  0  0  0  0  0  0  0  0  0  0  0
    6.0770   10.2580   -4.0110 H   0  0  0  0  0  0  0  0  0  0  0  0
    8.8460   12.0850    2.5090 H   0  0  0  0  0  0  0  0  0  0  0  0
    7.4290   14.0880    1.4990 H   0  0  0  0  0  0  0  0  0  0  0  0
  1 30  1  0  0  0  0
  1  3  2  0  0  0  0
  2  4  2  0  0  0  0
  2  1  1  0  0  0  0
  3  5  1  0  0  0  0
  3 32  1  0  0  0  0
  4  6  1  0  0  0  0
  6  7  1  0  0  0  0
  6  5  2  0  0  0  0
  7  9  1  0  0  0  0
  8  7  2  0  0  0  0
  9 11  2  0  0  0  0
 10  8  1  0  0  0  0
 10 13  2  0  0  0  0
 11 14  1  0  0  0  0
 12  9  1  0  0  0  0
 12 15  2  0  0  0  0
 13 12  1  0  0  0  0
 15 14  1  0  0  0  0
 16 13  1  6  0  0  0
 16 17  1  0  0  0  0
 18 21  1  0  0  0  0
 18 16  1  0  0  0  0
 19 22  1  0  0  0  0
 19 17  2  0  0  0  0
 20 18  2  0  0  0  0
 21 19  1  0  0  0  0
 22 25  2  0  0  0  0
 23 27  2  0  0  0  0
 23 20  1  0  0  0  0
 24 21  2  0  0  0  0
 25 28  1  0  0  0  0
 25 36  1  0  0  0  0
 26 22  1  0  0  0  0
 26 29  1  0  0  0  0
 27 24  1  0  0  0  0
 28 38  1  0  0  0  0
 29 39  1  0  0  0  0
 29 28  2  0  0  0  0
 31  2  1  0  0  0  0
 33  4  1  0  0  0  0
 34 10  1  0  0  0  0
 35 23  1  0  0  0  0
 37 27  1  0  0  0  0
M  END
$$$$
scan_sander_basal_param/min_pdbs/min_pdb_C169_075.pdb
 OpenBabel10021702133D

 39 44  0  0  1  0  0  0  0  0999 V2000
   -0.4880    0.3080    0.0740 C   0  0  0  0  0  0  0  0  0  0  0  0
    0.1510    0.7570   -1.0880 C   0  0  0  0  0  0  0  0  0  0  0  0
   -0.3550    1.0620    1.2490 C   0  0  0  0  0  0  0  0  0  0  0  0
    0.8980    1.9420   -1.0210 C   0  0  0  0  0  0  0  0  0  0  0  0
    0.3640    2.1980    1.3040 N   0  0  0  0  0  0  0  0  0  0  0  0
    0.9990    2.6580    0.2020 C   0  0  0  0  0  0  0  0  0  0  0  0
    1.7950    3.9410    0.3030 C   0  0  0  0  0  0  0  0  0  0  0  0
    2.0050    4.5980   -0.8590 N   0  0  0  0  0  0  0  0  0  0  0  0
    2.3400    4.4790    1.5010 C   0  0  0  0  0  0  0  0  0  0  0  0
    2.7120    5.7440   -0.8880 C   0  0  0  0  0  0  0  0  0  0  0  0
    2.2450    3.9070    2.7230 N   0  0  0  0  0  0  0  0  0  0  0  0
    3.0690    5.6680    1.4710 C   0  0  0  0  0  0  0  0  0  0  0  0
    3.2860    6.3600    0.2490 C   0  0  0  0  0  0  0  0  0  0  0  0
    3.0510    4.8970    3.7380 S   0  0  0  0  0  0  0  0  0  0  0  0
    3.5470    6.0380    2.6800 N   0  0  0  0  0  0  0  0  0  0  0  0
    4.0810    7.6210    0.1330 C   0  0  1  0  0  0  0  0  0  0  0  0
    4.5690    8.5680    1.5710 B   0  0  0  0  0  0  0  0  0  0  0  0
    4.5800    8.2520   -1.1040 C   0  0  0  0  0  0  0  0  0  0  0  0
    5.3250    9.7600    0.5300 C   0  0  0  0  0  0  0  0  0  0  0  0
    4.4790    7.7380   -2.3480 N   0  0  0  0  0  0  0  0  0  0  0  0
    5.2650    9.4470   -0.8770 C   0  0  0  0  0  0  0  0  0  0  0  0
    6.1300   10.8630    0.9570 C   0  0  0  0  0  0  0  0  0  0  0  0
    5.0400    8.4600   -3.3430 C   0  0  0  0  0  0  0  0  0  0  0  0
    5.8370   10.1820   -1.8530 N   0  0  0  0  0  0  0  0  0  0  0  0
    7.4120   10.6380    1.3810 C   0  0  0  0  0  0  0  0  0  0  0  0
    5.7470   12.5670    0.7840 S   0  0  0  0  0  0  0  0  0  0  0  0
    5.7110    9.6770   -3.0980 C   0  0  0  0  0  0  0  0  0  0  0  0
    8.1030   11.8540    1.6530 C   0  0  0  0  0  0  0  0  0  0  0  0
    7.3490   12.9770    1.4020 C   0  0  0  0  0  0  0  0  0  0  0  0
   -1.0760   -0.6040    0.0680 H   0  0  0  0  0  0  0  0  0  0  0  0
    0.0710    0.2010   -2.0190 H   0  0  0  0  0  0  0  0  0  0  0  0
   -0.8370    0.7490    2.1740 H   0  0  0  0  0  0  0  0  0  0  0  0
    1.4040    2.3040   -1.9110 H   0  0  0  0  0  0  0  0  0  0  0  0
    2.7660    6.1870   -1.8750 H   0  0  0  0  0  0  0  0  0  0  0  0
    4.9550    8.0560   -4.3510 H   0  0  0  0  0  0  0  0  0  0  0  0
    7.8560    9.6550    1.4950 H   0  0  0  0  0  0  0  0  0  0  0  0
    6.1610   10.2480   -3.9090 H   0  0  0  0  0  0  0  0  0  0  0  0
    9.1270   11.8840    2.0110 H   0  0  0  0  0  0  0  0  0  0  0  0
    7.6290   14.0160    1.5150 H   0  0  0  0  0  0  0  0  0  0  0  0
  1  3  2  0  0  0  0
  2  4  2  0  0  0  0
  2  1  1  0  0  0  0
  3  5  1  0  0  0  0
  3 32  1  0  0  0  0
  4  6  1  0  0  0  0
  6  7  1  0  0  0  0
  6  5  2  0  0  0  0
  7  9  1  0  0  0  0
  8  7  2  0  0  0  0
  9 11  2  0  0  0  0
 10  8  1  0  0  0  0
 10 13  2  0  0  0  0
 11 14  1  0  0  0  0
 12  9  1  0  0  0  0
 12 15  2  0  0  0  0
 13 12  1  0  0  0  0
 15 14  1  0  0  0  0
 16 13  1  1  0  0  0
 16 17  1  0  0  0  0
 18 21  1  0  0  0  0
 18 16  1  0  0  0  0
 19 22  1  0  0  0  0
 19 17  2  0  0  0  0
 20 18  2  0  0  0  0
 21 19  1  0  0  0  0
 22 25  2  0  0  0  0
 23 27  2  0  0  0  0
 23 20  1  0  0  0  0
 24 21  2  0  0  0  0
 25 36  1  0  0  0  0
 25 28  1  0  0  0  0
 26 22  1  0  0  0  0
 26 29  1  0  0  0  0
 27 24  1  0  0  0  0
 28 38  1  0  0  0  0
 29 39  1  0  0  0  0
 29 28  2  0  0  0  0
 30  1  1  0  0  0  0
 31  2  1  0  0  0  0
 33  4  1  0  0  0  0
 34 10  1  0  0  0  0
 35 23  1  0  0  0  0
 37 27  1  0  0  0  0
M  END
$$$$
scan_sander_basal_param/min_pdbs/min_pdb_C169_090.pdb
 OpenBabel10021702133D

 39 44  0  0  1  0  0  0  0  0999 V2000
   -0.5820    0.3570    0.0840 C   0  0  0  0  0  0  0  0  0  0  0  0
    0.0720    0.7850   -1.0780 C   0  0  0  0  0  0  0  0  0  0  0  0
   -0.4300    1.1090    1.2580 C   0  0  0  0  0  0  0  0  0  0  0  0
    0.8510    1.9490   -1.0120 C   0  0  0  0  0  0  0  0  0  0  0  0
    0.3190    2.2260    1.3110 N   0  0  0  0  0  0  0  0  0  0  0  0
    0.9680    2.6660    0.2090 C   0  0  0  0  0  0  0  0  0  0  0  0
    1.7970    3.9290    0.3080 C   0  0  0  0  0  0  0  0  0  0  0  0
    2.0270    4.5760   -0.8550 N   0  0  0  0  0  0  0  0  0  0  0  0
    2.3530    4.4550    1.5060 C   0  0  0  0  0  0  0  0  0  0  0  0
    2.7580    5.7070   -0.8840 C   0  0  0  0  0  0  0  0  0  0  0  0
    2.2450    3.8870    2.7290 N   0  0  0  0  0  0  0  0  0  0  0  0
    3.1060    5.6280    1.4760 C   0  0  0  0  0  0  0  0  0  0  0  0
    3.3380    6.3160    0.2540 C   0  0  0  0  0  0  0  0  0  0  0  0
    3.0710    4.8600    3.7430 S   0  0  0  0  0  0  0  0  0  0  0  0
    3.5900    5.9900    2.6850 N   0  0  0  0  0  0  0  0  0  0  0  0
    4.1510    7.5640    0.1390 C   0  0  1  0  0  0  0  0  0  0  0  0
    4.6500    8.5060    1.5770 B   0  0  0  0  0  0  0  0  0  0  0  0
    4.6640    8.1860   -1.0980 C   0  0  0  0  0  0  0  0  0  0  0  0
    5.4130    9.6910    0.5350 C   0  0  0  0  0  0  0  0  0  0  0  0
    4.5640    7.6690   -2.3410 N   0  0  0  0  0  0  0  0  0  0  0  0
    5.3560    9.3760   -0.8720 C   0  0  0  0  0  0  0  0  0  0  0  0
    6.1430   10.8470    0.9580 C   0  0  0  0  0  0  0  0  0  0  0  0
    5.1320    8.3860   -3.3360 C   0  0  0  0  0  0  0  0  0  0  0  0
    5.9350   10.1070   -1.8470 N   0  0  0  0  0  0  0  0  0  0  0  0
    7.4920   10.7630    1.1700 C   0  0  0  0  0  0  0  0  0  0  0  0
    5.5090   12.4730    1.1380 S   0  0  0  0  0  0  0  0  0  0  0  0
    5.8090    9.6000   -3.0910 C   0  0  0  0  0  0  0  0  0  0  0  0
    8.0520   12.0230    1.5300 C   0  0  0  0  0  0  0  0  0  0  0  0
    7.1250   13.0390    1.5690 C   0  0  0  0  0  0  0  0  0  0  0  0
   -1.1950   -0.5390    0.0790 H   0  0  0  0  0  0  0  0  0  0  0  0
   -0.0210    0.2290   -2.0070 H   0  0  0  0  0  0  0  0  0  0  0  0
   -0.9220    0.8120    2.1830 H   0  0  0  0  0  0  0  0  0  0  0  0
    1.3680    2.2950   -1.9020 H   0  0  0  0  0  0  0  0  0  0  0  0
    2.8250    6.1460   -1.8720 H   0  0  0  0  0  0  0  0  0  0  0  0
    5.0480    7.9810   -4.3440 H   0  0  0  0  0  0  0  0  0  0  0  0
    8.0720    9.8510    1.0740 H   0  0  0  0  0  0  0  0  0  0  0  0
    6.2640   10.1670   -3.9020 H   0  0  0  0  0  0  0  0  0  0  0  0
    9.1070   12.1610    1.7440 H   0  0  0  0  0  0  0  0  0  0  0  0
    7.2800   14.0830    1.8060 H   0  0  0  0  0  0  0  0  0  0  0  0
  1  3  2  0  0  0  0
  2  4  2  0  0  0  0
  2  1  1  0  0  0  0
  3  5  1  0  0  0  0
  3 32  1  0  0  0  0
  4  6  1  0  0  0  0
  6  7  1  0  0  0  0
  6  5  2  0  0  0  0
  7  9  1  0  0  0  0
  8  7  2  0  0  0  0
  9 11  2  0  0  0  0
 10  8  1  0  0  0  0
 10 13  2  0  0  0  0
 11 14  1  0  0  0  0
 12  9  1  0  0  0  0
 12 15  2  0  0  0  0
 13 12  1  0  0  0  0
 15 14  1  0  0  0  0
 16 13  1  1  0  0  0
 16 17  1  0  0  0  0
 18 21  1  0  0  0  0
 18 16  1  0  0  0  0
 19 22  1  0  0  0  0
 19 17  2  0  0  0  0
 20 18  2  0  0  0  0
 21 19  1  0  0  0  0
 22 26  1  0  0  0  0
 22 25  2  0  0  0  0
 23 27  2  0  0  0  0
 23 20  1  0  0  0  0
 24 21  2  0  0  0  0
 25 28  1  0  0  0  0
 26 29  1  0  0  0  0
 27 24  1  0  0  0  0
 28 29  2  0  0  0  0
 28 38  1  0  0  0  0
 29 39  1  0  0  0  0
 30  1  1  0  0  0  0
 31  2  1  0  0  0  0
 33  4  1  0  0  0  0
 34 10  1  0  0  0  0
 35 23  1  0  0  0  0
 36 25  1  0  0  0  0
 37 27  1  0  0  0  0
M  END
$$$$
scan_sander_basal_param/min_pdbs/min_pdb_C169_105.pdb
 OpenBabel10021702133D

 39 44  0  0  1  0  0  0  0  0999 V2000
   -0.4970    0.3000   -0.2250 C   0  0  0  0  0  0  0  0  0  0  0  0
   -0.1700    1.0020   -1.3920 C   0  0  0  0  0  0  0  0  0  0  0  0
   -0.0160    0.7750    1.0030 C   0  0  0  0  0  0  0  0  0  0  0  0
    0.6270    2.1500   -1.2760 C   0  0  0  0  0  0  0  0  0  0  0  0
    0.7480    1.8770    1.1050 N   0  0  0  0  0  0  0  0  0  0  0  0
    1.0870    2.5780   -0.0010 C   0  0  0  0  0  0  0  0  0  0  0  0
    1.9420    3.8170    0.1560 C   0  0  0  0  0  0  0  0  0  0  0  0
    1.8660    4.7170   -0.8470 N   0  0  0  0  0  0  0  0  0  0  0  0
    2.8130    4.0810    1.2490 C   0  0  0  0  0  0  0  0  0  0  0  0
    2.5880    5.8540   -0.8120 C   0  0  0  0  0  0  0  0  0  0  0  0
    3.0270    3.2480    2.2920 N   0  0  0  0  0  0  0  0  0  0  0  0
    3.5550    5.2610    1.2870 C   0  0  0  0  0  0  0  0  0  0  0  0
    3.4630    6.2160    0.2380 C   0  0  0  0  0  0  0  0  0  0  0  0
    4.1160    3.9990    3.2430 S   0  0  0  0  0  0  0  0  0  0  0  0
    4.3550    5.3610    2.3730 N   0  0  0  0  0  0  0  0  0  0  0  0
    4.2390    7.4930    0.2000 C   0  0  1  0  0  0  0  0  0  0  0  0
    5.1220    8.1060    1.6310 B   0  0  0  0  0  0  0  0  0  0  0  0
    4.4130    8.4000   -0.9510 C   0  0  0  0  0  0  0  0  0  0  0  0
    5.6120    9.5230    0.7220 C   0  0  0  0  0  0  0  0  0  0  0  0
    3.9650    8.1780   -2.2050 N   0  0  0  0  0  0  0  0  0  0  0  0
    5.1650    9.5370   -0.6500 C   0  0  0  0  0  0  0  0  0  0  0  0
    6.3250   10.6530    1.2350 C   0  0  0  0  0  0  0  0  0  0  0  0
    4.2550    9.1280   -3.1220 C   0  0  0  0  0  0  0  0  0  0  0  0
    5.4690   10.4970   -1.5490 N   0  0  0  0  0  0  0  0  0  0  0  0
    7.6530   10.8160    0.9440 C   0  0  0  0  0  0  0  0  0  0  0  0
    5.6950   11.8770    2.3220 S   0  0  0  0  0  0  0  0  0  0  0  0
    4.9960   10.2830   -2.7950 C   0  0  0  0  0  0  0  0  0  0  0  0
    8.1980   11.9670    1.5830 C   0  0  0  0  0  0  0  0  0  0  0  0
    7.2840   12.6460    2.3550 C   0  0  0  0  0  0  0  0  0  0  0  0
   -1.1120   -0.5940   -0.2680 H   0  0  0  0  0  0  0  0  0  0  0  0
   -0.5250    0.6670   -2.3630 H   0  0  0  0  0  0  0  0  0  0  0  0
   -0.2480    0.2580    1.9340 H   0  0  0  0  0  0  0  0  0  0  0  0
    0.8940    2.7070   -2.1690 H   0  0  0  0  0  0  0  0  0  0  0  0
    2.3970    6.5060   -1.6560 H   0  0  0  0  0  0  0  0  0  0  0  0
    3.8890    8.9600   -4.1340 H   0  0  0  0  0  0  0  0  0  0  0  0
    8.2240   10.1560    0.3010 H   0  0  0  0  0  0  0  0  0  0  0  0
    5.2230   11.0400   -3.5440 H   0  0  0  0  0  0  0  0  0  0  0  0
    9.2340   12.2700    1.4690 H   0  0  0  0  0  0  0  0  0  0  0  0
    7.4310   13.5440    2.9420 H   0  0  0  0  0  0  0  0  0  0  0  0
  1  3  2  0  0  0  0
  2  4  2  0  0  0  0
  2  1  1  0  0  0  0
  3  5  1  0  0  0  0
  3 32  1  0  0  0  0
  4  6  1  0  0  0  0
  6  7  1  0  0  0  0
  6  5  2  0  0  0  0
  7  9  1  0  0  0  0
  8 10  1  0  0  0  0
  8  7  2  0  0  0  0
  9 12  1  0  0  0  0
  9 11  2  0  0  0  0
 10 13  2  0  0  0  0
 11 14  1  0  0  0  0
 12 15  2  0  0  0  0
 13 12  1  0  0  0  0
 15 14  1  0  0  0  0
 16 13  1  6  0  0  0
 16 17  1  0  0  0  0
 18 21  1  0  0  0  0
 18 16  1  0  0  0  0
 19 22  1  0  0  0  0
 19 17  2  0  0  0  0
 20 18  2  0  0  0  0
 21 19  1  0  0  0  0
 22 26  1  0  0  0  0
 23 27  2  0  0  0  0
 23 20  1  0  0  0  0
 24 21  2  0  0  0  0
 25 22  2  0  0  0  0
 25 28  1  0  0  0  0
 26 29  1  0  0  0  0
 27 24  1  0  0  0  0
 28 29  2  0  0  0  0
 29 39  1  0  0  0  0
 30  1  1  0  0  0  0
 31  2  1  0  0  0  0
 33  4  1  0  0  0  0
 34 10  1  0  0  0  0
 35 23  1  0  0  0  0
 36 25  1  0  0  0  0
 37 27  1  0  0  0  0
 38 28  1  0  0  0  0
M  END
$$$$
scan_sander_basal_param/min_pdbs/min_pdb_C169_120.pdb
 OpenBabel10021702133D

 39 44  0  0  1  0  0  0  0  0999 V2000
   -0.4560    0.2670   -0.2270 C   0  0  0  0  0  0  0  0  0  0  0  0
   -0.1280    0.9720   -1.3920 C   0  0  0  0  0  0  0  0  0  0  0  0
    0.0080    0.7500    1.0050 C   0  0  0  0  0  0  0  0  0  0  0  0
    0.6530    2.1310   -1.2710 C   0  0  0  0  0  0  0  0  0  0  0  0
    0.7560    1.8630    1.1120 N   0  0  0  0  0  0  0  0  0  0  0  0
    1.0960    2.5670    0.0080 C   0  0  0  0  0  0  0  0  0  0  0  0
    1.9360    3.8150    0.1700 C   0  0  0  0  0  0  0  0  0  0  0  0
    1.8580    4.7130   -0.8360 N   0  0  0  0  0  0  0  0  0  0  0  0
    2.7940    4.0920    1.2690 C   0  0  0  0  0  0  0  0  0  0  0  0
    2.5700    5.8560   -0.8000 C   0  0  0  0  0  0  0  0  0  0  0  0
    3.0050    3.2650    2.3180 N   0  0  0  0  0  0  0  0  0  0  0  0
    3.5280    5.2770    1.3080 C   0  0  0  0  0  0  0  0  0  0  0  0
    3.4390    6.2260    0.2530 C   0  0  0  0  0  0  0  0  0  0  0  0
    4.0810    4.0280    3.2750 S   0  0  0  0  0  0  0  0  0  0  0  0
    4.3180    5.3870    2.4000 N   0  0  0  0  0  0  0  0  0  0  0  0
    4.2130    7.5050    0.2130 C   0  0  1  0  0  0  0  0  0  0  0  0
    5.0860    8.1260    1.6460 B   0  0  0  0  0  0  0  0  0  0  0  0
    4.3930    8.4090   -0.9400 C   0  0  0  0  0  0  0  0  0  0  0  0
    5.6290    9.5140    0.7210 C   0  0  0  0  0  0  0  0  0  0  0  0
    3.9190    8.1990   -2.1860 N   0  0  0  0  0  0  0  0  0  0  0  0
    5.1690    9.5330   -0.6480 C   0  0  0  0  0  0  0  0  0  0  0  0
    6.3500   10.6370    1.2420 C   0  0  0  0  0  0  0  0  0  0  0  0
    4.2070    9.1450   -3.1070 C   0  0  0  0  0  0  0  0  0  0  0  0
    5.4680   10.4900   -1.5500 N   0  0  0  0  0  0  0  0  0  0  0  0
    7.5940   10.9460    0.7580 C   0  0  0  0  0  0  0  0  0  0  0  0
    5.8740   11.6340    2.6060 S   0  0  0  0  0  0  0  0  0  0  0  0
    4.9720   10.2870   -2.7890 C   0  0  0  0  0  0  0  0  0  0  0  0
    8.1820   12.0390    1.4590 C   0  0  0  0  0  0  0  0  0  0  0  0
    7.3900   12.5260    2.4720 C   0  0  0  0  0  0  0  0  0  0  0  0
   -1.0580   -0.6350   -0.2750 H   0  0  0  0  0  0  0  0  0  0  0  0
   -0.4690    0.6300   -2.3660 H   0  0  0  0  0  0  0  0  0  0  0  0
   -0.2270    0.2320    1.9340 H   0  0  0  0  0  0  0  0  0  0  0  0
    0.9210    2.6890   -2.1620 H   0  0  0  0  0  0  0  0  0  0  0  0
    2.3800    6.5020   -1.6480 H   0  0  0  0  0  0  0  0  0  0  0  0
    3.8210    8.9870   -4.1120 H   0  0  0  0  0  0  0  0  0  0  0  0
    8.0770   10.4260   -0.0620 H   0  0  0  0  0  0  0  0  0  0  0  0
    5.1980   11.0440   -3.5390 H   0  0  0  0  0  0  0  0  0  0  0  0
    9.1610   12.4380    1.2130 H   0  0  0  0  0  0  0  0  0  0  0  0
    7.5930   13.3420    3.1530 H   0  0  0  0  0  0  0  0  0  0  0  0
  1  3  2  0  0  0  0
  2  4  2  0  0  0  0
  2  1  1  0  0  0  0
  3  5  1  0  0  0  0
  3 32  1  0  0  0  0
  4  6  1  0  0  0  0
  6  7  1  0  0  0  0
  6  5  2  0  0  0  0
  7  9  1  0  0  0  0
  8 10  1  0  0  0  0
  8  7  2  0  0  0  0
  9 12  1  0  0  0  0
  9 11  2  0  0  0  0
 10 13  2  0  0  0  0
 11 14  1  0  0  0  0
 12 15  2  0  0  0  0
 13 12  1  0  0  0  0
 15 14  1  0  0  0  0
 16 13  1  6  0  0  0
 16 17  1  0  0  0  0
 18 21  1  0  0  0  0
 18 16  1  0  0  0  0
 19 22  1  0  0  0  0
 19 17  2  0  0  0  0
 20 18  2  0  0  0  0
 21 19  1  0  0  0  0
 22 26  1  0  0  0  0
 23 27  2  0  0  0  0
 23 20  1  0  0  0  0
 24 21  2  0  0  0  0
 25 22  2  0  0  0  0
 25 28  1  0  0  0  0
 27 24  1  0  0  0  0
 28 29  2  0  0  0  0
 29 26  1  0  0  0  0
 29 39  1  0  0  0  0
 30  1  1  0  0  0  0
 31  2  1  0  0  0  0
 33  4  1  0  0  0  0
 34 10  1  0  0  0  0
 35 23  1  0  0  0  0
 36 25  1  0  0  0  0
 37 27  1  0  0  0  0
 38 28  1  0  0  0  0
M  END
$$$$
scan_sander_basal_param/min_pdbs/min_pdb_C169_135.pdb
 OpenBabel10021702133D

 39 44  0  0  1  0  0  0  0  0999 V2000
   -0.4440    0.2540   -0.2110 C   0  0  0  0  0  0  0  0  0  0  0  0
   -0.1030    0.9470   -1.3790 C   0  0  0  0  0  0  0  0  0  0  0  0
    0.0050    0.7510    1.0210 C   0  0  0  0  0  0  0  0  0  0  0  0
    0.6730    2.1090   -1.2610 C   0  0  0  0  0  0  0  0  0  0  0  0
    0.7490    1.8660    1.1250 N   0  0  0  0  0  0  0  0  0  0  0  0
    1.1010    2.5590    0.0180 C   0  0  0  0  0  0  0  0  0  0  0  0
    1.9360    3.8110    0.1760 C   0  0  0  0  0  0  0  0  0  0  0  0
    1.8680    4.6980   -0.8400 N   0  0  0  0  0  0  0  0  0  0  0  0
    2.7810    4.1010    1.2820 C   0  0  0  0  0  0  0  0  0  0  0  0
    2.5770    5.8430   -0.8070 C   0  0  0  0  0  0  0  0  0  0  0  0
    2.9810    3.2850    2.3420 N   0  0  0  0  0  0  0  0  0  0  0  0
    3.5120    5.2880    1.3170 C   0  0  0  0  0  0  0  0  0  0  0  0
    3.4340    6.2270    0.2520 C   0  0  0  0  0  0  0  0  0  0  0  0
    4.0440    4.0610    3.3030 S   0  0  0  0  0  0  0  0  0  0  0  0
    4.2890    5.4110    2.4170 N   0  0  0  0  0  0  0  0  0  0  0  0
    4.2060    7.5060    0.2080 C   0  0  1  0  0  0  0  0  0  0  0  0
    5.0600    8.1410    1.6440 B   0  0  0  0  0  0  0  0  0  0  0  0
    4.4000    8.4010   -0.9490 C   0  0  0  0  0  0  0  0  0  0  0  0
    5.6550    9.5010    0.7080 C   0  0  0  0  0  0  0  0  0  0  0  0
    3.9070    8.1980   -2.1890 N   0  0  0  0  0  0  0  0  0  0  0  0
    5.1920    9.5170   -0.6650 C   0  0  0  0  0  0  0  0  0  0  0  0
    6.3740   10.6200    1.2500 C   0  0  0  0  0  0  0  0  0  0  0  0
    4.1930    9.1400   -3.1140 C   0  0  0  0  0  0  0  0  0  0  0  0
    5.4800   10.4740   -1.5720 N   0  0  0  0  0  0  0  0  0  0  0  0
    7.4990   11.1060    0.6330 C   0  0  0  0  0  0  0  0  0  0  0  0
    6.0910   11.3540    2.8210 S   0  0  0  0  0  0  0  0  0  0  0  0
    4.9690   10.2760   -2.8050 C   0  0  0  0  0  0  0  0  0  0  0  0
    8.1240   12.1380    1.3910 C   0  0  0  0  0  0  0  0  0  0  0  0
    7.4890   12.4020    2.5810 C   0  0  0  0  0  0  0  0  0  0  0  0
   -1.0430   -0.6500   -0.2560 H   0  0  0  0  0  0  0  0  0  0  0  0
   -0.4320    0.5950   -2.3540 H   0  0  0  0  0  0  0  0  0  0  0  0
   -0.2390    0.2420    1.9530 H   0  0  0  0  0  0  0  0  0  0  0  0
    0.9500    2.6590   -2.1550 H   0  0  0  0  0  0  0  0  0  0  0  0
    2.3950    6.4780   -1.6650 H   0  0  0  0  0  0  0  0  0  0  0  0
    3.7910    8.9850   -4.1140 H   0  0  0  0  0  0  0  0  0  0  0  0
    7.8800   10.7490   -0.3170 H   0  0  0  0  0  0  0  0  0  0  0  0
    5.1890   11.0330   -3.5570 H   0  0  0  0  0  0  0  0  0  0  0  0
    9.0190   12.6540    1.0580 H   0  0  0  0  0  0  0  0  0  0  0  0
    7.7520   13.1270    3.3400 H   0  0  0  0  0  0  0  0  0  0  0  0
  1  3  2  0  0  0  0
  2  4  2  0  0  0  0
  2  1  1  0  0  0  0
  3  5  1  0  0  0  0
  3 32  1  0  0  0  0
  4  6  1  0  0  0  0
  6  7  1  0  0  0  0
  6  5  2  0  0  0  0
  7  9  1  0  0  0  0
  8 10  1  0  0  0  0
  8  7  2  0  0  0  0
  9 12  1  0  0  0  0
  9 11  2  0  0  0  0
 10 13  2  0  0  0  0
 11 14  1  0  0  0  0
 12 15  2  0  0  0  0
 13 12  1  0  0  0  0
 15 14  1  0  0  0  0
 16 13  1  6  0  0  0
 16 17  1  0  0  0  0
 18 21  1  0  0  0  0
 18 16  1  0  0  0  0
 19 22  1  0  0  0  0
 19 17  2  0  0  0  0
 20 18  2  0  0  0  0
 21 19  1  0  0  0  0
 22 26  1  0  0  0  0
 23 27  2  0  0  0  0
 23 20  1  0  0  0  0
 24 21  2  0  0  0  0
 25 22  2  0  0  0  0
 25 28  1  0  0  0  0
 27 24  1  0  0  0  0
 28 29  2  0  0  0  0
 29 26  1  0  0  0  0
 29 39  1  0  0  0  0
 30  1  1  0  0  0  0
 31  2  1  0  0  0  0
 33  4  1  0  0  0  0
 34 10  1  0  0  0  0
 35 23  1  0  0  0  0
 36 25  1  0  0  0  0
 37 27  1  0  0  0  0
 38 28  1  0  0  0  0
M  END
$$$$
scan_sander_basal_param/min_pdbs/min_pdb_C169_150.pdb
 OpenBabel10021702133D

 39 44  0  0  1  0  0  0  0  0999 V2000
   -0.4350    0.2430   -0.1870 C   0  0  0  0  0  0  0  0  0  0  0  0
   -0.0820    0.9200   -1.3610 C   0  0  0  0  0  0  0  0  0  0  0  0
    0.0020    0.7550    1.0420 C   0  0  0  0  0  0  0  0  0  0  0  0
    0.6950    2.0820   -1.2510 C   0  0  0  0  0  0  0  0  0  0  0  0
    0.7460    1.8720    1.1390 N   0  0  0  0  0  0  0  0  0  0  0  0
    1.1090    2.5490    0.0260 C   0  0  0  0  0  0  0  0  0  0  0  0
    1.9430    3.8030    0.1770 C   0  0  0  0  0  0  0  0  0  0  0  0
    1.8850    4.6770   -0.8520 N   0  0  0  0  0  0  0  0  0  0  0  0
    2.7760    4.1080    1.2870 C   0  0  0  0  0  0  0  0  0  0  0  0
    2.5920    5.8240   -0.8260 C   0  0  0  0  0  0  0  0  0  0  0  0
    2.9680    3.3050    2.3580 N   0  0  0  0  0  0  0  0  0  0  0  0
    3.5040    5.2980    1.3160 C   0  0  0  0  0  0  0  0  0  0  0  0
    3.4340    6.2250    0.2390 C   0  0  0  0  0  0  0  0  0  0  0  0
    4.0200    4.0940    3.3210 S   0  0  0  0  0  0  0  0  0  0  0  0
    4.2690    5.4340    2.4220 N   0  0  0  0  0  0  0  0  0  0  0  0
    4.2010    7.5080    0.1910 C   0  0  1  0  0  0  0  0  0  0  0  0
    5.0320    8.1600    1.6300 B   0  0  0  0  0  0  0  0  0  0  0  0
    4.4070    8.3940   -0.9690 C   0  0  0  0  0  0  0  0  0  0  0  0
    5.6660    9.5000    0.6890 C   0  0  0  0  0  0  0  0  0  0  0  0
    3.8990    8.1920   -2.2030 N   0  0  0  0  0  0  0  0  0  0  0  0
    5.2060    9.5090   -0.6900 C   0  0  0  0  0  0  0  0  0  0  0  0
    6.4130   10.5930    1.2590 C   0  0  0  0  0  0  0  0  0  0  0  0
    4.1730    9.1320   -3.1320 C   0  0  0  0  0  0  0  0  0  0  0  0
    5.4700   10.4690   -1.6030 N   0  0  0  0  0  0  0  0  0  0  0  0
    7.3800   11.2790    0.5630 C   0  0  0  0  0  0  0  0  0  0  0  0
    6.3680   11.0500    2.9570 S   0  0  0  0  0  0  0  0  0  0  0  0
    4.9470   10.2710   -2.8310 C   0  0  0  0  0  0  0  0  0  0  0  0
    8.0500   12.2420    1.3710 C   0  0  0  0  0  0  0  0  0  0  0  0
    7.6150   12.2620    2.6740 C   0  0  0  0  0  0  0  0  0  0  0  0
   -1.0350   -0.6610   -0.2260 H   0  0  0  0  0  0  0  0  0  0  0  0
   -0.4020    0.5550   -2.3340 H   0  0  0  0  0  0  0  0  0  0  0  0
   -0.2520    0.2590    1.9790 H   0  0  0  0  0  0  0  0  0  0  0  0
    0.9810    2.6200   -2.1490 H   0  0  0  0  0  0  0  0  0  0  0  0
    2.4180    6.4450   -1.6950 H   0  0  0  0  0  0  0  0  0  0  0  0
    3.7600    8.9770   -4.1280 H   0  0  0  0  0  0  0  0  0  0  0  0
    7.6380   11.1100   -0.4750 H   0  0  0  0  0  0  0  0  0  0  0  0
    5.1550   11.0300   -3.5830 H   0  0  0  0  0  0  0  0  0  0  0  0
    8.8360   12.8860    0.9890 H   0  0  0  0  0  0  0  0  0  0  0  0
    7.9530   12.8860    3.4910 H   0  0  0  0  0  0  0  0  0  0  0  0
  1  3  2  0  0  0  0
  2  4  2  0  0  0  0
  2  1  1  0  0  0  0
  3  5  1  0  0  0  0
  3 32  1  0  0  0  0
  4  6  1  0  0  0  0
  6  7  1  0  0  0  0
  6  5  2  0  0  0  0
  7  9  1  0  0  0  0
  8 10  1  0  0  0  0
  8  7  2  0  0  0  0
  9 12  1  0  0  0  0
  9 11  2  0  0  0  0
 10 13  2  0  0  0  0
 11 14  1  0  0  0  0
 12 15  2  0  0  0  0
 13 12  1  0  0  0  0
 15 14  1  0  0  0  0
 16 13  1  6  0  0  0
 16 17  1  0  0  0  0
 18 21  1  0  0  0  0
 18 16  1  0  0  0  0
 19 22  1  0  0  0  0
 19 17  2  0  0  0  0
 20 18  2  0  0  0  0
 21 19  1  0  0  0  0
 22 26  1  0  0  0  0
 23 27  2  0  0  0  0
 23 20  1  0  0  0  0
 24 21  2  0  0  0  0
 25 22  2  0  0  0  0
 25 28  1  0  0  0  0
 27 24  1  0  0  0  0
 28 29  2  0  0  0  0
 29 26  1  0  0  0  0
 29 39  1  0  0  0  0
 30  1  1  0  0  0  0
 31  2  1  0  0  0  0
 33  4  1  0  0  0  0
 34 10  1  0  0  0  0
 35 23  1  0  0  0  0
 36 25  1  0  0  0  0
 37 27  1  0  0  0  0
 38 28  1  0  0  0  0
M  END
$$$$
scan_sander_basal_param/min_pdbs/min_pdb_C169_165.pdb
 OpenBabel10021702133D

 39 44  0  0  1  0  0  0  0  0999 V2000
   -0.4160    0.2290   -0.1710 C   0  0  0  0  0  0  0  0  0  0  0  0
   -0.0610    0.9000   -1.3480 C   0  0  0  0  0  0  0  0  0  0  0  0
    0.0110    0.7530    1.0570 C   0  0  0  0  0  0  0  0  0  0  0  0
    0.7090    2.0670   -1.2420 C   0  0  0  0  0  0  0  0  0  0  0  0
    0.7490    1.8740    1.1500 N   0  0  0  0  0  0  0  0  0  0  0  0
    1.1140    2.5460    0.0340 C   0  0  0  0  0  0  0  0  0  0  0  0
    1.9400    3.8050    0.1790 C   0  0  0  0  0  0  0  0  0  0  0  0
    1.8830    4.6710   -0.8550 N   0  0  0  0  0  0  0  0  0  0  0  0
    2.7660    4.1230    1.2920 C   0  0  0  0  0  0  0  0  0  0  0  0
    2.5840    5.8210   -0.8350 C   0  0  0  0  0  0  0  0  0  0  0  0
    2.9550    3.3290    2.3700 N   0  0  0  0  0  0  0  0  0  0  0  0
    3.4890    5.3150    1.3140 C   0  0  0  0  0  0  0  0  0  0  0  0
    3.4210    6.2330    0.2290 C   0  0  0  0  0  0  0  0  0  0  0  0
    3.9990    4.1300    3.3320 S   0  0  0  0  0  0  0  0  0  0  0  0
    4.2490    5.4640    2.4230 N   0  0  0  0  0  0  0  0  0  0  0  0
    4.1860    7.5180    0.1750 C   0  0  1  0  0  0  0  0  0  0  0  0
    5.0080    8.1820    1.6100 B   0  0  0  0  0  0  0  0  0  0  0  0
    4.3960    8.3970   -0.9890 C   0  0  0  0  0  0  0  0  0  0  0  0
    5.6540    9.5190    0.6670 C   0  0  0  0  0  0  0  0  0  0  0  0
    3.8890    8.1810   -2.2210 N   0  0  0  0  0  0  0  0  0  0  0  0
    5.1960    9.5150   -0.7180 C   0  0  0  0  0  0  0  0  0  0  0  0
    6.4700   10.5570    1.2570 C   0  0  0  0  0  0  0  0  0  0  0  0
    4.1620    9.1100   -3.1610 C   0  0  0  0  0  0  0  0  0  0  0  0
    5.4550   10.4610   -1.6450 N   0  0  0  0  0  0  0  0  0  0  0  0
    7.2410   11.4530    0.5510 C   0  0  0  0  0  0  0  0  0  0  0  0
    6.6880   10.7390    2.9950 S   0  0  0  0  0  0  0  0  0  0  0  0
    4.9340   10.2510   -2.8710 C   0  0  0  0  0  0  0  0  0  0  0  0
    7.9790   12.3280    1.3990 C   0  0  0  0  0  0  0  0  0  0  0  0
    7.7870   12.0900    2.7370 C   0  0  0  0  0  0  0  0  0  0  0  0
   -1.0100   -0.6790   -0.2060 H   0  0  0  0  0  0  0  0  0  0  0  0
   -0.3730    0.5250   -2.3200 H   0  0  0  0  0  0  0  0  0  0  0  0
   -0.2440    0.2620    1.9960 H   0  0  0  0  0  0  0  0  0  0  0  0
    0.9960    2.6000   -2.1430 H   0  0  0  0  0  0  0  0  0  0  0  0
    2.4120    6.4350   -1.7100 H   0  0  0  0  0  0  0  0  0  0  0  0
    3.7500    8.9430   -4.1550 H   0  0  0  0  0  0  0  0  0  0  0  0
    7.3300   11.5050   -0.5250 H   0  0  0  0  0  0  0  0  0  0  0  0
    5.1420   11.0030   -3.6310 H   0  0  0  0  0  0  0  0  0  0  0  0
    8.6380   13.1010    1.0160 H   0  0  0  0  0  0  0  0  0  0  0  0
    8.2230   12.6000    3.5860 H   0  0  0  0  0  0  0  0  0  0  0  0
  1  3  2  0  0  0  0
  2  4  2  0  0  0  0
  2  1  1  0  0  0  0
  3  5  1  0  0  0  0
  3 32  1  0  0  0  0
  4  6  1  0  0  0  0
  6  7  1  0  0  0  0
  6  5  2  0  0  0  0
  7  9  1  0  0  0  0
  8 10  1  0  0  0  0
  8  7  2  0  0  0  0
  9 12  1  0  0  0  0
  9 11  2  0  0  0  0
 10 13  2  0  0  0  0
 11 14  1  0  0  0  0
 12 15  2  0  0  0  0
 13 12  1  0  0  0  0
 15 14  1  0  0  0  0
 16 13  1  6  0  0  0
 16 17  1  0  0  0  0
 18 21  1  0  0  0  0
 18 16  1  0  0  0  0
 19 22  1  0  0  0  0
 19 17  2  0  0  0  0
 20 18  2  0  0  0  0
 21 19  1  0  0  0  0
 22 26  1  0  0  0  0
 23 27  2  0  0  0  0
 23 20  1  0  0  0  0
 24 21  2  0  0  0  0
 25 22  2  0  0  0  0
 25 28  1  0  0  0  0
 27 24  1  0  0  0  0
 28 29  2  0  0  0  0
 29 26  1  0  0  0  0
 29 39  1  0  0  0  0
 30  1  1  0  0  0  0
 31  2  1  0  0  0  0
 33  4  1  0  0  0  0
 34 10  1  0  0  0  0
 35 23  1  0  0  0  0
 36 25  1  0  0  0  0
 37 27  1  0  0  0  0
 38 28  1  0  0  0  0
M  END
$$$$
scan_sander_basal_param/min_pdbs/min_pdb_C169_180.pdb
 OpenBabel10021702133D

 39 44  0  0  1  0  0  0  0  0999 V2000
   -0.4920    0.2830   -0.1400 C   0  0  0  0  0  0  0  0  0  0  0  0
   -0.1710    0.9720   -1.3170 C   0  0  0  0  0  0  0  0  0  0  0  0
   -0.0080    0.7750    1.0800 C   0  0  0  0  0  0  0  0  0  0  0  0
    0.6220    2.1240   -1.2180 C   0  0  0  0  0  0  0  0  0  0  0  0
    0.7530    1.8810    1.1660 N   0  0  0  0  0  0  0  0  0  0  0  0
    1.0870    2.5690    0.0500 C   0  0  0  0  0  0  0  0  0  0  0  0
    1.9410    3.8100    0.1870 C   0  0  0  0  0  0  0  0  0  0  0  0
    1.8610    4.6970   -0.8280 N   0  0  0  0  0  0  0  0  0  0  0  0
    2.8170    4.0890    1.2720 C   0  0  0  0  0  0  0  0  0  0  0  0
    2.5890    5.8310   -0.8150 C   0  0  0  0  0  0  0  0  0  0  0  0
    3.0290    3.2730    2.3290 N   0  0  0  0  0  0  0  0  0  0  0  0
    3.5690    5.2640    1.2860 C   0  0  0  0  0  0  0  0  0  0  0  0
    3.4810    6.2000    0.2190 C   0  0  0  0  0  0  0  0  0  0  0  0
    4.1280    4.0330    3.2620 S   0  0  0  0  0  0  0  0  0  0  0  0
    4.3750    5.3760    2.3650 N   0  0  0  0  0  0  0  0  0  0  0  0
    4.2780    7.4630    0.1490 C   0  0  1  0  0  0  0  0  0  0  0  0
    5.1810    8.0850    1.5510 B   0  0  0  0  0  0  0  0  0  0  0  0
    4.4600    8.3480   -1.0130 C   0  0  0  0  0  0  0  0  0  0  0  0
    5.6930    9.5030    0.6410 C   0  0  0  0  0  0  0  0  0  0  0  0
    4.0040    8.0840   -2.2560 N   0  0  0  0  0  0  0  0  0  0  0  0
    5.2360    9.4850   -0.7450 C   0  0  0  0  0  0  0  0  0  0  0  0
    6.4980   10.5450    1.2470 C   0  0  0  0  0  0  0  0  0  0  0  0
    4.3000    8.9860   -3.2140 C   0  0  0  0  0  0  0  0  0  0  0  0
    5.5450   10.3850   -1.7020 N   0  0  0  0  0  0  0  0  0  0  0  0
    6.9470   11.6880    0.6220 C   0  0  0  0  0  0  0  0  0  0  0  0
    7.0080   10.4880    2.9330 S   0  0  0  0  0  0  0  0  0  0  0  0
    5.0640   10.1350   -2.9370 C   0  0  0  0  0  0  0  0  0  0  0  0
    7.7170   12.5200    1.4870 C   0  0  0  0  0  0  0  0  0  0  0  0
    7.8500   12.0220    2.7580 C   0  0  0  0  0  0  0  0  0  0  0  0
   -1.1030   -0.6140   -0.1700 H   0  0  0  0  0  0  0  0  0  0  0  0
   -0.5280    0.6230   -2.2830 H   0  0  0  0  0  0  0  0  0  0  0  0
   -0.2350    0.2700    2.0180 H   0  0  0  0  0  0  0  0  0  0  0  0
    0.8840    2.6700   -2.1190 H   0  0  0  0  0  0  0  0  0  0  0  0
    2.3920    6.4710   -1.6660 H   0  0  0  0  0  0  0  0  0  0  0  0
    3.9250    8.7830   -4.2160 H   0  0  0  0  0  0  0  0  0  0  0  0
    6.7680   11.9730   -0.4030 H   0  0  0  0  0  0  0  0  0  0  0  0
    5.3040   10.8580   -3.7150 H   0  0  0  0  0  0  0  0  0  0  0  0
    8.1550   13.4590    1.1610 H   0  0  0  0  0  0  0  0  0  0  0  0
    8.3770   12.4480    3.6020 H   0  0  0  0  0  0  0  0  0  0  0  0
  1  3  2  0  0  0  0
  2  4  2  0  0  0  0
  2  1  1  0  0  0  0
  3  5  1  0  0  0  0
  3 32  1  0  0  0  0
  4  6  1  0  0  0  0
  6  7  1  0  0  0  0
  6  5  2  0  0  0  0
  7  9  1  0  0  0  0
  8 10  1  0  0  0  0
  8  7  2  0  0  0  0
  9 12  1  0  0  0  0
  9 11  2  0  0  0  0
 10 13  2  0  0  0  0
 11 14  1  0  0  0  0
 12 15  2  0  0  0  0
 13 12  1  0  0  0  0
 15 14  1  0  0  0  0
 16 13  1  6  0  0  0
 16 17  1  0  0  0  0
 18 21  1  0  0  0  0
 18 16  1  0  0  0  0
 19 22  1  0  0  0  0
 19 17  2  0  0  0  0
 20 18  2  0  0  0  0
 21 19  1  0  0  0  0
 22 26  1  0  0  0  0
 23 27  2  0  0  0  0
 23 20  1  0  0  0  0
 24 21  2  0  0  0  0
 25 22  2  0  0  0  0
 25 28  1  0  0  0  0
 27 24  1  0  0  0  0
 28 29  2  0  0  0  0
 29 26  1  0  0  0  0
 29 39  1  0  0  0  0
 30  1  1  0  0  0  0
 31  2  1  0  0  0  0
 33  4  1  0  0  0  0
 34 10  1  0  0  0  0
 35 23  1  0  0  0  0
 36 25  1  0  0  0  0
 37 27  1  0  0  0  0
 38 28  1  0  0  0  0
M  END
$$$$
scan_sander_basal_param/min_pdbs/min_pdb_C169_195.pdb
 OpenBabel10021702133D

 39 44  0  0  1  0  0  0  0  0999 V2000
   -0.6380    0.4040   -0.0890 C   0  0  0  0  0  0  0  0  0  0  0  0
   -0.3380    1.0980   -1.2680 C   0  0  0  0  0  0  0  0  0  0  0  0
   -0.0760    0.8500    1.1160 C   0  0  0  0  0  0  0  0  0  0  0  0
    0.5150    2.2080   -1.1880 C   0  0  0  0  0  0  0  0  0  0  0  0
    0.7400    1.9170    1.1840 N   0  0  0  0  0  0  0  0  0  0  0  0
    1.0550    2.6090    0.0650 C   0  0  0  0  0  0  0  0  0  0  0  0
    1.9710    3.8070    0.1830 C   0  0  0  0  0  0  0  0  0  0  0  0
    1.8860    4.7160   -0.8130 N   0  0  0  0  0  0  0  0  0  0  0  0
    2.9060    4.0260    1.2330 C   0  0  0  0  0  0  0  0  0  0  0  0
    2.6600    5.8180   -0.8100 C   0  0  0  0  0  0  0  0  0  0  0  0
    3.1320    3.1790    2.2620 N   0  0  0  0  0  0  0  0  0  0  0  0
    3.7020    5.1700    1.2380 C   0  0  0  0  0  0  0  0  0  0  0  0
    3.6020    6.1320    0.1980 C   0  0  0  0  0  0  0  0  0  0  0  0
    4.3000    3.8770    3.1610 S   0  0  0  0  0  0  0  0  0  0  0  0
    4.5580    5.2300    2.2830 N   0  0  0  0  0  0  0  0  0  0  0  0
    4.4310    7.3710    0.1210 C   0  0  1  0  0  0  0  0  0  0  0  0
    5.4120    7.9450    1.4930 B   0  0  0  0  0  0  0  0  0  0  0  0
    4.5850    8.2690   -1.0340 C   0  0  0  0  0  0  0  0  0  0  0  0
    5.7590    9.4440    0.6400 C   0  0  0  0  0  0  0  0  0  0  0  0
    4.1940    7.9720   -2.2910 N   0  0  0  0  0  0  0  0  0  0  0  0
    5.3220    9.4250   -0.7500 C   0  0  0  0  0  0  0  0  0  0  0  0
    6.5100   10.5260    1.2350 C   0  0  0  0  0  0  0  0  0  0  0  0
    4.5160    8.8670   -3.2480 C   0  0  0  0  0  0  0  0  0  0  0  0
    5.6820   10.3070   -1.7070 N   0  0  0  0  0  0  0  0  0  0  0  0
    6.5560   11.8090    0.7380 C   0  0  0  0  0  0  0  0  0  0  0  0
    7.3570   10.3900    2.7730 S   0  0  0  0  0  0  0  0  0  0  0  0
    5.2570   10.0300   -2.9580 C   0  0  0  0  0  0  0  0  0  0  0  0
    7.3250   12.6860    1.5580 C   0  0  0  0  0  0  0  0  0  0  0  0
    7.8380   12.0810    2.6790 C   0  0  0  0  0  0  0  0  0  0  0  0
   -1.2930   -0.4610   -0.1050 H   0  0  0  0  0  0  0  0  0  0  0  0
   -0.7540    0.7830   -2.2220 H   0  0  0  0  0  0  0  0  0  0  0  0
   -0.2850    0.3390    2.0550 H   0  0  0  0  0  0  0  0  0  0  0  0
    0.7610    2.7570   -2.0910 H   0  0  0  0  0  0  0  0  0  0  0  0
    2.4570    6.4890   -1.6370 H   0  0  0  0  0  0  0  0  0  0  0  0
    4.1910    8.6430   -4.2630 H   0  0  0  0  0  0  0  0  0  0  0  0
    6.0580   12.1580   -0.1560 H   0  0  0  0  0  0  0  0  0  0  0  0
    5.5270   10.7400   -3.7380 H   0  0  0  0  0  0  0  0  0  0  0  0
    7.4760   13.7330    1.3170 H   0  0  0  0  0  0  0  0  0  0  0  0
    8.4470   12.5120    3.4620 H   0  0  0  0  0  0  0  0  0  0  0  0
  1  3  2  0  0  0  0
  2  4  2  0  0  0  0
  2  1  1  0  0  0  0
  3  5  1  0  0  0  0
  3 32  1  0  0  0  0
  4  6  1  0  0  0  0
  6  7  1  0  0  0  0
  6  5  2  0  0  0  0
  7  9  1  0  0  0  0
  8 10  1  0  0  0  0
  8  7  2  0  0  0  0
  9 12  1  0  0  0  0
  9 11  2  0  0  0  0
 10 13  2  0  0  0  0
 11 14  1  0  0  0  0
 12 15  2  0  0  0  0
 13 12  1  0  0  0  0
 15 14  1  0  0  0  0
 16 13  1  6  0  0  0
 16 17  1  0  0  0  0
 18 21  1  0  0  0  0
 18 16  1  0  0  0  0
 19 22  1  0  0  0  0
 19 17  2  0  0  0  0
 20 18  2  0  0  0  0
 21 19  1  0  0  0  0
 22 26  1  0  0  0  0
 23 27  2  0  0  0  0
 23 20  1  0  0  0  0
 24 21  2  0  0  0  0
 25 22  2  0  0  0  0
 25 28  1  0  0  0  0
 27 24  1  0  0  0  0
 28 29  2  0  0  0  0
 29 26  1  0  0  0  0
 29 39  1  0  0  0  0
 30  1  1  0  0  0  0
 31  2  1  0  0  0  0
 33  4  1  0  0  0  0
 34 10  1  0  0  0  0
 35 23  1  0  0  0  0
 36 25  1  0  0  0  0
 37 27  1  0  0  0  0
 38 28  1  0  0  0  0
M  END
$$$$
scan_sander_basal_param/min_pdbs/min_pdb_C169_210.pdb
 OpenBabel10021702133D

 39 44  0  0  1  0  0  0  0  0999 V2000
   -0.6240    0.3880   -0.1130 C   0  0  0  0  0  0  0  0  0  0  0  0
   -0.2860    1.0630   -1.2930 C   0  0  0  0  0  0  0  0  0  0  0  0
   -0.1100    0.8600    1.1030 C   0  0  0  0  0  0  0  0  0  0  0  0
    0.5560    2.1820   -1.2010 C   0  0  0  0  0  0  0  0  0  0  0  0
    0.6960    1.9340    1.1820 N   0  0  0  0  0  0  0  0  0  0  0  0
    1.0470    2.6080    0.0620 C   0  0  0  0  0  0  0  0  0  0  0  0
    1.9510    3.8140    0.1930 C   0  0  0  0  0  0  0  0  0  0  0  0
    1.8970    4.7050   -0.8220 N   0  0  0  0  0  0  0  0  0  0  0  0
    2.8460    4.0580    1.2710 C   0  0  0  0  0  0  0  0  0  0  0  0
    2.6640    5.8120   -0.8110 C   0  0  0  0  0  0  0  0  0  0  0  0
    3.0390    3.2320    2.3240 N   0  0  0  0  0  0  0  0  0  0  0  0
    3.6360    5.2070    1.2840 C   0  0  0  0  0  0  0  0  0  0  0  0
    3.5680    6.1490    0.2220 C   0  0  0  0  0  0  0  0  0  0  0  0
    4.1690    3.9530    3.2510 S   0  0  0  0  0  0  0  0  0  0  0  0
    4.4530    5.2910    2.3570 N   0  0  0  0  0  0  0  0  0  0  0  0
    4.3960    7.3900    0.1520 C   0  0  1  0  0  0  0  0  0  0  0  0
    5.3250    7.9920    1.5510 B   0  0  0  0  0  0  0  0  0  0  0  0
    4.5880    8.2680   -1.0140 C   0  0  0  0  0  0  0  0  0  0  0  0
    5.7320    9.4550    0.6650 C   0  0  0  0  0  0  0  0  0  0  0  0
    4.2160    7.9670   -2.2770 N   0  0  0  0  0  0  0  0  0  0  0  0
    5.3280    9.4200   -0.7300 C   0  0  0  0  0  0  0  0  0  0  0  0
    6.5670   10.5070    1.1890 C   0  0  0  0  0  0  0  0  0  0  0  0
    4.5640    8.8550   -3.2330 C   0  0  0  0  0  0  0  0  0  0  0  0
    5.7100   10.3000   -1.6810 N   0  0  0  0  0  0  0  0  0  0  0  0
    6.4130   11.8210    0.8190 C   0  0  0  0  0  0  0  0  0  0  0  0
    7.6950   10.3190    2.5240 S   0  0  0  0  0  0  0  0  0  0  0  0
    5.3060   10.0160   -2.9360 C   0  0  0  0  0  0  0  0  0  0  0  0
    7.2700   12.6940    1.5500 C   0  0  0  0  0  0  0  0  0  0  0  0
    8.0360   12.0470    2.4900 C   0  0  0  0  0  0  0  0  0  0  0  0
   -1.2720   -0.4820   -0.1380 H   0  0  0  0  0  0  0  0  0  0  0  0
   -0.6650    0.7290   -2.2550 H   0  0  0  0  0  0  0  0  0  0  0  0
   -0.3500    0.3640    2.0430 H   0  0  0  0  0  0  0  0  0  0  0  0
    0.8320    2.7170   -2.1050 H   0  0  0  0  0  0  0  0  0  0  0  0
    2.4880    6.4650   -1.6580 H   0  0  0  0  0  0  0  0  0  0  0  0
    4.2550    8.6260   -4.2520 H   0  0  0  0  0  0  0  0  0  0  0  0
    5.7150   12.1770    0.0700 H   0  0  0  0  0  0  0  0  0  0  0  0
    5.5920   10.7190   -3.7170 H   0  0  0  0  0  0  0  0  0  0  0  0
    7.2990   13.7660    1.3830 H   0  0  0  0  0  0  0  0  0  0  0  0
    8.7600   12.4660    3.1760 H   0  0  0  0  0  0  0  0  0  0  0  0
  1  3  2  0  0  0  0
  2  4  2  0  0  0  0
  2  1  1  0  0  0  0
  3  5  1  0  0  0  0
  3 32  1  0  0  0  0
  4  6  1  0  0  0  0
  6  7  1  0  0  0  0
  6  5  2  0  0  0  0
  7  9  1  0  0  0  0
  8 10  1  0  0  0  0
  8  7  2  0  0  0  0
  9 12  1  0  0  0  0
  9 11  2  0  0  0  0
 10 13  2  0  0  0  0
 11 14  1  0  0  0  0
 12 15  2  0  0  0  0
 13 12  1  0  0  0  0
 15 14  1  0  0  0  0
 16 13  1  6  0  0  0
 16 17  1  0  0  0  0
 18 21  1  0  0  0  0
 18 16  1  0  0  0  0
 19 22  1  0  0  0  0
 19 17  2  0  0  0  0
 20 18  2  0  0  0  0
 21 19  1  0  0  0  0
 22 26  1  0  0  0  0
 23 27  2  0  0  0  0
 23 20  1  0  0  0  0
 24 21  2  0  0  0  0
 25 22  2  0  0  0  0
 25 28  1  0  0  0  0
 27 24  1  0  0  0  0
 28 29  2  0  0  0  0
 29 26  1  0  0  0  0
 29 39  1  0  0  0  0
 30  1  1  0  0  0  0
 31  2  1  0  0  0  0
 33  4  1  0  0  0  0
 34 10  1  0  0  0  0
 35 23  1  0  0  0  0
 36 25  1  0  0  0  0
 37 27  1  0  0  0  0
 38 28  1  0  0  0  0
M  END
$$$$
scan_sander_basal_param/min_pdbs/min_pdb_C169_225.pdb
 OpenBabel10021702133D

 39 44  0  0  1  0  0  0  0  0999 V2000
   -0.5850    0.3570   -0.1210 C   0  0  0  0  0  0  0  0  0  0  0  0
   -0.2150    1.0140   -1.3010 C   0  0  0  0  0  0  0  0  0  0  0  0
   -0.1190    0.8590    1.1030 C   0  0  0  0  0  0  0  0  0  0  0  0
    0.6060    2.1460   -1.2030 C   0  0  0  0  0  0  0  0  0  0  0  0
    0.6680    1.9470    1.1870 N   0  0  0  0  0  0  0  0  0  0  0  0
    1.0480    2.6040    0.0680 C   0  0  0  0  0  0  0  0  0  0  0  0
    1.9310    3.8250    0.2050 C   0  0  0  0  0  0  0  0  0  0  0  0
    1.9000    4.6950   -0.8290 N   0  0  0  0  0  0  0  0  0  0  0  0
    2.7850    4.1030    1.3070 C   0  0  0  0  0  0  0  0  0  0  0  0
    2.6530    5.8110   -0.8160 C   0  0  0  0  0  0  0  0  0  0  0  0
    2.9510    3.3010    2.3830 N   0  0  0  0  0  0  0  0  0  0  0  0
    3.5620    5.2610    1.3220 C   0  0  0  0  0  0  0  0  0  0  0  0
    3.5220    6.1790    0.2380 C   0  0  0  0  0  0  0  0  0  0  0  0
    4.0420    4.0540    3.3330 S   0  0  0  0  0  0  0  0  0  0  0  0
    4.3420    5.3750    2.4200 N   0  0  0  0  0  0  0  0  0  0  0  0
    4.3420    7.4260    0.1680 C   0  0  1  0  0  0  0  0  0  0  0  0
    5.2210    8.0630    1.5880 B   0  0  0  0  0  0  0  0  0  0  0  0
    4.5660    8.2830   -1.0100 C   0  0  0  0  0  0  0  0  0  0  0  0
    5.7130    9.4710    0.6620 C   0  0  0  0  0  0  0  0  0  0  0  0
    4.1870    7.9890   -2.2720 N   0  0  0  0  0  0  0  0  0  0  0  0
    5.3250    9.4230   -0.7330 C   0  0  0  0  0  0  0  0  0  0  0  0
    6.6150   10.4870    1.1250 C   0  0  0  0  0  0  0  0  0  0  0  0
    4.5460    8.8720   -3.2290 C   0  0  0  0  0  0  0  0  0  0  0  0
    5.7100   10.3070   -1.6770 N   0  0  0  0  0  0  0  0  0  0  0  0
    6.3320   11.8160    0.9370 C   0  0  0  0  0  0  0  0  0  0  0  0
    7.9860   10.2300    2.1930 S   0  0  0  0  0  0  0  0  0  0  0  0
    5.3010   10.0270   -2.9320 C   0  0  0  0  0  0  0  0  0  0  0  0
    7.2770   12.6630    1.5850 C   0  0  0  0  0  0  0  0  0  0  0  0
    8.2370   11.9720    2.2880 C   0  0  0  0  0  0  0  0  0  0  0  0
   -1.2190   -0.5240   -0.1500 H   0  0  0  0  0  0  0  0  0  0  0  0
   -0.5560    0.6550   -2.2690 H   0  0  0  0  0  0  0  0  0  0  0  0
   -0.3840    0.3790    2.0440 H   0  0  0  0  0  0  0  0  0  0  0  0
    0.9050    2.6680   -2.1070 H   0  0  0  0  0  0  0  0  0  0  0  0
    2.4970    6.4430   -1.6830 H   0  0  0  0  0  0  0  0  0  0  0  0
    4.2330    8.6490   -4.2480 H   0  0  0  0  0  0  0  0  0  0  0  0
    5.4920   12.1890    0.3630 H   0  0  0  0  0  0  0  0  0  0  0  0
    5.5920   10.7280   -3.7130 H   0  0  0  0  0  0  0  0  0  0  0  0
    7.2310   13.7460    1.5340 H   0  0  0  0  0  0  0  0  0  0  0  0
    9.0630   12.3650    2.8670 H   0  0  0  0  0  0  0  0  0  0  0  0
  1  3  2  0  0  0  0
  2  4  2  0  0  0  0
  2  1  1  0  0  0  0
  3  5  1  0  0  0  0
  3 32  1  0  0  0  0
  4  6  1  0  0  0  0
  6  7  1  0  0  0  0
  6  5  2  0  0  0  0
  7  9  1  0  0  0  0
  8 10  1  0  0  0  0
  8  7  2  0  0  0  0
  9 12  1  0  0  0  0
  9 11  2  0  0  0  0
 10 13  2  0  0  0  0
 11 14  1  0  0  0  0
 12 15  2  0  0  0  0
 13 12  1  0  0  0  0
 15 14  1  0  0  0  0
 16 13  1  6  0  0  0
 16 17  1  0  0  0  0
 18 21  1  0  0  0  0
 18 16  1  0  0  0  0
 19 22  1  0  0  0  0
 19 17  2  0  0  0  0
 20 18  2  0  0  0  0
 21 19  1  0  0  0  0
 22 26  1  0  0  0  0
 23 27  2  0  0  0  0
 23 20  1  0  0  0  0
 24 21  2  0  0  0  0
 25 22  2  0  0  0  0
 25 28  1  0  0  0  0
 26 29  1  0  0  0  0
 27 24  1  0  0  0  0
 28 29  2  0  0  0  0
 29 39  1  0  0  0  0
 30  1  1  0  0  0  0
 31  2  1  0  0  0  0
 33  4  1  0  0  0  0
 34 10  1  0  0  0  0
 35 23  1  0  0  0  0
 36 25  1  0  0  0  0
 37 27  1  0  0  0  0
 38 28  1  0  0  0  0
M  END
$$$$
scan_sander_basal_param/min_pdbs/min_pdb_C169_240.pdb
 OpenBabel10021702133D

 39 44  0  0  1  0  0  0  0  0999 V2000
   -0.5880    0.3640   -0.0840 C   0  0  0  0  0  0  0  0  0  0  0  0
   -0.2160    1.0090   -1.2700 C   0  0  0  0  0  0  0  0  0  0  0  0
   -0.1230    0.8770    1.1350 C   0  0  0  0  0  0  0  0  0  0  0  0
    0.6080    2.1410   -1.1820 C   0  0  0  0  0  0  0  0  0  0  0  0
    0.6670    1.9630    1.2110 N   0  0  0  0  0  0  0  0  0  0  0  0
    1.0500    2.6090    0.0850 C   0  0  0  0  0  0  0  0  0  0  0  0
    1.9340    3.8300    0.2120 C   0  0  0  0  0  0  0  0  0  0  0  0
    1.9060    4.6900   -0.8290 N   0  0  0  0  0  0  0  0  0  0  0  0
    2.7870    4.1160    1.3130 C   0  0  0  0  0  0  0  0  0  0  0  0
    2.6600    5.8060   -0.8250 C   0  0  0  0  0  0  0  0  0  0  0  0
    2.9520    3.3230    2.3960 N   0  0  0  0  0  0  0  0  0  0  0  0
    3.5650    5.2740    1.3190 C   0  0  0  0  0  0  0  0  0  0  0  0
    3.5250    6.1850    0.2280 C   0  0  0  0  0  0  0  0  0  0  0  0
    4.0420    4.0830    3.3400 S   0  0  0  0  0  0  0  0  0  0  0  0
    4.3440    5.3970    2.4170 N   0  0  0  0  0  0  0  0  0  0  0  0
    4.3430    7.4320    0.1510 C   0  0  1  0  0  0  0  0  0  0  0  0
    5.2180    8.0810    1.5700 B   0  0  0  0  0  0  0  0  0  0  0  0
    4.5690    8.2810   -1.0350 C   0  0  0  0  0  0  0  0  0  0  0  0
    5.7290    9.4670    0.6250 C   0  0  0  0  0  0  0  0  0  0  0  0
    4.1750    7.9930   -2.2930 N   0  0  0  0  0  0  0  0  0  0  0  0
    5.3350    9.4160   -0.7640 C   0  0  0  0  0  0  0  0  0  0  0  0
    6.6400   10.4850    1.0560 C   0  0  0  0  0  0  0  0  0  0  0  0
    4.5280    8.8790   -3.2500 C   0  0  0  0  0  0  0  0  0  0  0  0
    5.7100   10.3080   -1.7050 N   0  0  0  0  0  0  0  0  0  0  0  0
    6.2320   11.7910    1.1150 C   0  0  0  0  0  0  0  0  0  0  0  0
    8.2130   10.2220    1.7900 S   0  0  0  0  0  0  0  0  0  0  0  0
    5.2870   10.0320   -2.9570 C   0  0  0  0  0  0  0  0  0  0  0  0
    7.2260   12.6350    1.6910 C   0  0  0  0  0  0  0  0  0  0  0  0
    8.3520   11.9540    2.0930 C   0  0  0  0  0  0  0  0  0  0  0  0
   -1.2240   -0.5150   -0.1060 H   0  0  0  0  0  0  0  0  0  0  0  0
   -0.5570    0.6430   -2.2350 H   0  0  0  0  0  0  0  0  0  0  0  0
   -0.3900    0.4050    2.0800 H   0  0  0  0  0  0  0  0  0  0  0  0
    0.9090    2.6530   -2.0900 H   0  0  0  0  0  0  0  0  0  0  0  0
    2.5060    6.4290   -1.6980 H   0  0  0  0  0  0  0  0  0  0  0  0
    4.2040    8.6600   -4.2660 H   0  0  0  0  0  0  0  0  0  0  0  0
    5.2710   12.1480    0.7610 H   0  0  0  0  0  0  0  0  0  0  0  0
    5.5700   10.7360   -3.7380 H   0  0  0  0  0  0  0  0  0  0  0  0
    7.0960   13.7060    1.8060 H   0  0  0  0  0  0  0  0  0  0  0  0
    9.2470   12.3470    2.5580 H   0  0  0  0  0  0  0  0  0  0  0  0
  1  3  2  0  0  0  0
  2  4  2  0  0  0  0
  2  1  1  0  0  0  0
  3  5  1  0  0  0  0
  3 32  1  0  0  0  0
  4  6  1  0  0  0  0
  6  7  1  0  0  0  0
  6  5  2  0  0  0  0
  7  9  1  0  0  0  0
  8 10  1  0  0  0  0
  8  7  2  0  0  0  0
  9 12  1  0  0  0  0
  9 11  2  0  0  0  0
 10 13  2  0  0  0  0
 11 14  1  0  0  0  0
 12 15  2  0  0  0  0
 13 12  1  0  0  0  0
 15 14  1  0  0  0  0
 16 13  1  6  0  0  0
 16 17  1  0  0  0  0
 18 21  1  0  0  0  0
 18 16  1  0  0  0  0
 19 22  1  0  0  0  0
 19 17  2  0  0  0  0
 20 18  2  0  0  0  0
 21 19  1  0  0  0  0
 22 25  2  0  0  0  0
 22 26  1  0  0  0  0
 23 27  2  0  0  0  0
 23 20  1  0  0  0  0
 24 21  2  0  0  0  0
 25 28  1  0  0  0  0
 26 29  1  0  0  0  0
 27 24  1  0  0  0  0
 28 38  1  0  0  0  0
 28 29  2  0  0  0  0
 29 39  1  0  0  0  0
 30  1  1  0  0  0  0
 31  2  1  0  0  0  0
 33  4  1  0  0  0  0
 34 10  1  0  0  0  0
 35 23  1  0  0  0  0
 36 25  1  0  0  0  0
 37 27  1  0  0  0  0
M  END
$$$$
scan_sander_basal_param/min_pdbs/min_pdb_C169_255.pdb
 OpenBabel10021702133D

 39 44  0  0  1  0  0  0  0  0999 V2000
   -0.5640    0.3550   -0.0390 C   0  0  0  0  0  0  0  0  0  0  0  0
   -0.1940    0.9900   -1.2310 C   0  0  0  0  0  0  0  0  0  0  0  0
   -0.1040    0.8850    1.1760 C   0  0  0  0  0  0  0  0  0  0  0  0
    0.6210    2.1280   -1.1540 C   0  0  0  0  0  0  0  0  0  0  0  0
    0.6780    1.9780    1.2400 N   0  0  0  0  0  0  0  0  0  0  0  0
    1.0580    2.6130    0.1080 C   0  0  0  0  0  0  0  0  0  0  0  0
    1.9340    3.8420    0.2230 C   0  0  0  0  0  0  0  0  0  0  0  0
    1.9010    4.6900   -0.8280 N   0  0  0  0  0  0  0  0  0  0  0  0
    2.7830    4.1460    1.3220 C   0  0  0  0  0  0  0  0  0  0  0  0
    2.6480    5.8110   -0.8360 C   0  0  0  0  0  0  0  0  0  0  0  0
    2.9510    3.3670    2.4140 N   0  0  0  0  0  0  0  0  0  0  0  0
    3.5530    5.3090    1.3160 C   0  0  0  0  0  0  0  0  0  0  0  0
    3.5110    6.2060    0.2140 C   0  0  0  0  0  0  0  0  0  0  0  0
    4.0350    4.1440    3.3510 S   0  0  0  0  0  0  0  0  0  0  0  0
    4.3300    5.4490    2.4130 N   0  0  0  0  0  0  0  0  0  0  0  0
    4.3230    7.4570    0.1230 C   0  0  1  0  0  0  0  0  0  0  0  0
    5.1920    8.1260    1.5370 B   0  0  0  0  0  0  0  0  0  0  0  0
    4.5450    8.2930   -1.0720 C   0  0  0  0  0  0  0  0  0  0  0  0
    5.7090    9.4960    0.5710 C   0  0  0  0  0  0  0  0  0  0  0  0
    4.1450    7.9960   -2.3270 N   0  0  0  0  0  0  0  0  0  0  0  0
    5.3130    9.4300   -0.8150 C   0  0  0  0  0  0  0  0  0  0  0  0
    6.6430   10.5030    0.9720 C   0  0  0  0  0  0  0  0  0  0  0  0
    4.4940    8.8760   -3.2910 C   0  0  0  0  0  0  0  0  0  0  0  0
    5.6820   10.3170   -1.7630 N   0  0  0  0  0  0  0  0  0  0  0  0
    6.1900   11.7480    1.3190 C   0  0  0  0  0  0  0  0  0  0  0  0
    8.3370   10.2530    1.3530 S   0  0  0  0  0  0  0  0  0  0  0  0
    5.2530   10.0310   -3.0100 C   0  0  0  0  0  0  0  0  0  0  0  0
    7.2350   12.5700    1.8320 C   0  0  0  0  0  0  0  0  0  0  0  0
    8.4490   11.9260    1.9040 C   0  0  0  0  0  0  0  0  0  0  0  0
   -1.1940   -0.5290   -0.0510 H   0  0  0  0  0  0  0  0  0  0  0  0
   -0.5310    0.6100   -2.1930 H   0  0  0  0  0  0  0  0  0  0  0  0
   -0.3700    0.4220    2.1260 H   0  0  0  0  0  0  0  0  0  0  0  0
    0.9210    2.6320   -2.0680 H   0  0  0  0  0  0  0  0  0  0  0  0
    2.4920    6.4220   -1.7160 H   0  0  0  0  0  0  0  0  0  0  0  0
    4.1640    8.6490   -4.3040 H   0  0  0  0  0  0  0  0  0  0  0  0
    5.1620   12.0760    1.2120 H   0  0  0  0  0  0  0  0  0  0  0  0
    5.5310   10.7300   -3.7980 H   0  0  0  0  0  0  0  0  0  0  0  0
    7.0790   13.5980    2.1430 H   0  0  0  0  0  0  0  0  0  0  0  0
    9.3970   12.3120    2.2540 H   0  0  0  0  0  0  0  0  0  0  0  0
  1  3  2  0  0  0  0
  2  4  2  0  0  0  0
  2  1  1  0  0  0  0
  3  5  1  0  0  0  0
  3 32  1  0  0  0  0
  4  6  1  0  0  0  0
  6  7  1  0  0  0  0
  6  5  2  0  0  0  0
  7  9  1  0  0  0  0
  8  7  2  0  0  0  0
  9 11  2  0  0  0  0
 10  8  1  0  0  0  0
 10 13  2  0  0  0  0
 11 14  1  0  0  0  0
 12  9  1  0  0  0  0
 12 15  2  0  0  0  0
 13 12  1  0  0  0  0
 15 14  1  0  0  0  0
 16 13  1  6  0  0  0
 16 17  1  0  0  0  0
 18 21  1  0  0  0  0
 18 16  1  0  0  0  0
 19 22  1  0  0  0  0
 19 17  2  0  0  0  0
 20 18  2  0  0  0  0
 21 19  1  0  0  0  0
 22 25  2  0  0  0  0
 22 26  1  0  0  0  0
 23 27  2  0  0  0  0
 23 20  1  0  0  0  0
 24 21  2  0  0  0  0
 25 28  1  0  0  0  0
 26 29  1  0  0  0  0
 27 24  1  0  0  0  0
 28 29  2  0  0  0  0
 28 38  1  0  0  0  0
 29 39  1  0  0  0  0
 30  1  1  0  0  0  0
 31  2  1  0  0  0  0
 33  4  1  0  0  0  0
 34 10  1  0  0  0  0
 35 23  1  0  0  0  0
 36 25  1  0  0  0  0
 37 27  1  0  0  0  0
M  END
$$$$
scan_sander_basal_param/min_pdbs/min_pdb_C169_270.pdb
 OpenBabel10021702133D

 39 44  0  0  1  0  0  0  0  0999 V2000
   -0.5440    0.3530    0.0110 C   0  0  0  0  0  0  0  0  0  0  0  0
   -0.1780    0.9750   -1.1890 C   0  0  0  0  0  0  0  0  0  0  0  0
   -0.0860    0.8980    1.2190 C   0  0  0  0  0  0  0  0  0  0  0  0
    0.6330    2.1170   -1.1250 C   0  0  0  0  0  0  0  0  0  0  0  0
    0.6910    1.9950    1.2700 N   0  0  0  0  0  0  0  0  0  0  0  0
    1.0680    2.6200    0.1310 C   0  0  0  0  0  0  0  0  0  0  0  0
    1.9390    3.8530    0.2310 C   0  0  0  0  0  0  0  0  0  0  0  0
    1.9020    4.6890   -0.8300 N   0  0  0  0  0  0  0  0  0  0  0  0
    2.7870    4.1740    1.3260 C   0  0  0  0  0  0  0  0  0  0  0  0
    2.6440    5.8130   -0.8500 C   0  0  0  0  0  0  0  0  0  0  0  0
    2.9590    3.4080    2.4270 N   0  0  0  0  0  0  0  0  0  0  0  0
    3.5510    5.3400    1.3060 C   0  0  0  0  0  0  0  0  0  0  0  0
    3.5040    6.2250    0.1950 C   0  0  0  0  0  0  0  0  0  0  0  0
    4.0390    4.2010    3.3540 S   0  0  0  0  0  0  0  0  0  0  0  0
    4.3280    5.4970    2.4020 N   0  0  0  0  0  0  0  0  0  0  0  0
    4.3080    7.4790    0.0900 C   0  0  1  0  0  0  0  0  0  0  0  0
    5.1750    8.1690    1.4950 B   0  0  0  0  0  0  0  0  0  0  0  0
    4.5260    8.3030   -1.1150 C   0  0  0  0  0  0  0  0  0  0  0  0
    5.6770    9.5340    0.5150 C   0  0  0  0  0  0  0  0  0  0  0  0
    4.1310    7.9880   -2.3670 N   0  0  0  0  0  0  0  0  0  0  0  0
    5.2840    9.4490   -0.8700 C   0  0  0  0  0  0  0  0  0  0  0  0
    6.6170   10.5420    0.8970 C   0  0  0  0  0  0  0  0  0  0  0  0
    4.4740    8.8590   -3.3410 C   0  0  0  0  0  0  0  0  0  0  0  0
    5.6480   10.3270   -1.8270 N   0  0  0  0  0  0  0  0  0  0  0  0
    6.1730   11.6710    1.5320 C   0  0  0  0  0  0  0  0  0  0  0  0
    8.3630   10.3740    0.9270 S   0  0  0  0  0  0  0  0  0  0  0  0
    5.2240   10.0240   -3.0720 C   0  0  0  0  0  0  0  0  0  0  0  0
    7.2520   12.4840    1.9860 C   0  0  0  0  0  0  0  0  0  0  0  0
    8.4890   11.9410    1.7290 C   0  0  0  0  0  0  0  0  0  0  0  0
   -1.1700   -0.5340    0.0090 H   0  0  0  0  0  0  0  0  0  0  0  0
   -0.5130    0.5820   -2.1460 H   0  0  0  0  0  0  0  0  0  0  0  0
   -0.3490    0.4460    2.1740 H   0  0  0  0  0  0  0  0  0  0  0  0
    0.9300    2.6120   -2.0450 H   0  0  0  0  0  0  0  0  0  0  0  0
    2.4840    6.4140   -1.7380 H   0  0  0  0  0  0  0  0  0  0  0  0
    4.1490    8.6190   -4.3520 H   0  0  0  0  0  0  0  0  0  0  0  0
    5.1280   11.9240    1.6710 H   0  0  0  0  0  0  0  0  0  0  0  0
    5.4970   10.7160   -3.8670 H   0  0  0  0  0  0  0  0  0  0  0  0
    7.1030   13.4320    2.4940 H   0  0  0  0  0  0  0  0  0  0  0  0
    9.4650   12.3430    1.9670 H   0  0  0  0  0  0  0  0  0  0  0  0
  1  3  2  0  0  0  0
  2  4  2  0  0  0  0
  2  1  1  0  0  0  0
  3  5  1  0  0  0  0
  3 32  1  0  0  0  0
  4  6  1  0  0  0  0
  6  7  1  0  0  0  0
  6  5  2  0  0  0  0
  7  9  1  0  0  0  0
  8  7  2  0  0  0  0
  9 11  2  0  0  0  0
 10  8  1  0  0  0  0
 10 13  2  0  0  0  0
 11 14  1  0  0  0  0
 12  9  1  0  0  0  0
 12 15  2  0  0  0  0
 13 12  1  0  0  0  0
 15 14  1  0  0  0  0
 16 13  1  6  0  0  0
 16 17  1  0  0  0  0
 18 21  1  0  0  0  0
 18 16  1  0  0  0  0
 19 22  1  0  0  0  0
 19 17  2  0  0  0  0
 20 18  2  0  0  0  0
 21 19  1  0  0  0  0
 22 26  1  0  0  0  0
 22 25  2  0  0  0  0
 23 27  2  0  0  0  0
 23 20  1  0  0  0  0
 24 21  2  0  0  0  0
 25 36  1  0  0  0  0
 25 28  1  0  0  0  0
 26 29  1  0  0  0  0
 27 24  1  0  0  0  0
 28 38  1  0  0  0  0
 29 39  1  0  0  0  0
 29 28  2  0  0  0  0
 30  1  1  0  0  0  0
 31  2  1  0  0  0  0
 33  4  1  0  0  0  0
 34 10  1  0  0  0  0
 35 23  1  0  0  0  0
 37 27  1  0  0  0  0
M  END
$$$$
scan_sander_basal_param/min_pdbs/min_pdb_C169_285.pdb
 OpenBabel10021702133D

 39 44  0  0  1  0  0  0  0  0999 V2000
   -0.5400    0.3570    0.0500 C   0  0  0  0  0  0  0  0  0  0  0  0
   -0.1650    0.9630   -1.1560 C   0  0  0  0  0  0  0  0  0  0  0  0
   -0.0910    0.9200    1.2530 C   0  0  0  0  0  0  0  0  0  0  0  0
    0.6440    2.1070   -1.1030 C   0  0  0  0  0  0  0  0  0  0  0  0
    0.6850    2.0180    1.2950 N   0  0  0  0  0  0  0  0  0  0  0  0
    1.0700    2.6270    0.1500 C   0  0  0  0  0  0  0  0  0  0  0  0
    1.9390    3.8630    0.2390 C   0  0  0  0  0  0  0  0  0  0  0  0
    1.9090    4.6840   -0.8330 N   0  0  0  0  0  0  0  0  0  0  0  0
    2.7780    4.1990    1.3360 C   0  0  0  0  0  0  0  0  0  0  0  0
    2.6490    5.8090   -0.8640 C   0  0  0  0  0  0  0  0  0  0  0  0
    2.9440    3.4480    2.4480 N   0  0  0  0  0  0  0  0  0  0  0  0
    3.5420    5.3660    1.3060 C   0  0  0  0  0  0  0  0  0  0  0  0
    3.5010    6.2360    0.1820 C   0  0  0  0  0  0  0  0  0  0  0  0
    4.0160    4.2560    3.3730 S   0  0  0  0  0  0  0  0  0  0  0  0
    4.3090    5.5390    2.4050 N   0  0  0  0  0  0  0  0  0  0  0  0
    4.3050    7.4900    0.0660 C   0  0  1  0  0  0  0  0  0  0  0  0
    5.1590    8.2000    1.4690 B   0  0  0  0  0  0  0  0  0  0  0  0
    4.5300    8.2970   -1.1480 C   0  0  0  0  0  0  0  0  0  0  0  0
    5.6700    9.5500    0.4730 C   0  0  0  0  0  0  0  0  0  0  0  0
    4.1410    7.9670   -2.3980 N   0  0  0  0  0  0  0  0  0  0  0  0
    5.2860    9.4470   -0.9130 C   0  0  0  0  0  0  0  0  0  0  0  0
    6.5880   10.5790    0.8560 C   0  0  0  0  0  0  0  0  0  0  0  0
    4.4890    8.8270   -3.3810 C   0  0  0  0  0  0  0  0  0  0  0  0
    5.6530   10.3150   -1.8790 N   0  0  0  0  0  0  0  0  0  0  0  0
    6.1800   11.5620    1.7170 C   0  0  0  0  0  0  0  0  0  0  0  0
    8.3180   10.5920    0.5590 S   0  0  0  0  0  0  0  0  0  0  0  0
    5.2350    9.9960   -3.1220 C   0  0  0  0  0  0  0  0  0  0  0  0
    7.2590   12.4100    2.1030 C   0  0  0  0  0  0  0  0  0  0  0  0
    8.4670   12.0360    1.5620 C   0  0  0  0  0  0  0  0  0  0  0  0
   -1.1650   -0.5300    0.0560 H   0  0  0  0  0  0  0  0  0  0  0  0
   -0.4930    0.5570   -2.1100 H   0  0  0  0  0  0  0  0  0  0  0  0
   -0.3610    0.4800    2.2130 H   0  0  0  0  0  0  0  0  0  0  0  0
    0.9470    2.5890   -2.0270 H   0  0  0  0  0  0  0  0  0  0  0  0
    2.4950    6.3970   -1.7600 H   0  0  0  0  0  0  0  0  0  0  0  0
    4.1680    8.5740   -4.3900 H   0  0  0  0  0  0  0  0  0  0  0  0
    5.1610   11.6880    2.0640 H   0  0  0  0  0  0  0  0  0  0  0  0
    5.5110   10.6800   -3.9240 H   0  0  0  0  0  0  0  0  0  0  0  0
    7.1330   13.2600    2.7670 H   0  0  0  0  0  0  0  0  0  0  0  0
    9.4360   12.4990    1.6920 H   0  0  0  0  0  0  0  0  0  0  0  0
  1 30  1  0  0  0  0
  1  3  2  0  0  0  0
  2  4  2  0  0  0  0
  2  1  1  0  0  0  0
  3  5  1  0  0  0  0
  3 32  1  0  0  0  0
  4  6  1  0  0  0  0
  6  7  1  0  0  0  0
  6  5  2  0  0  0  0
  7  9  1  0  0  0  0
  8  7  2  0  0  0  0
  9 11  2  0  0  0  0
 10  8  1  0  0  0  0
 10 13  2  0  0  0  0
 11 14  1  0  0  0  0
 12  9  1  0  0  0  0
 12 15  2  0  0  0  0
 13 12  1  0  0  0  0
 15 14  1  0  0  0  0
 16 13  1  6  0  0  0
 16 17  1  0  0  0  0
 18 21  1  0  0  0  0
 18 16  1  0  0  0  0
 19 22  1  0  0  0  0
 19 17  2  0  0  0  0
 20 18  2  0  0  0  0
 21 19  1  0  0  0  0
 22 25  2  0  0  0  0
 23 27  2  0  0  0  0
 23 20  1  0  0  0  0
 24 21  2  0  0  0  0
 25 36  1  0  0  0  0
 25 28  1  0  0  0  0
 26 22  1  0  0  0  0
 26 29  1  0  0  0  0
 27 24  1  0  0  0  0
 28 38  1  0  0  0  0
 29 39  1  0  0  0  0
 29 28  2  0  0  0  0
 31  2  1  0  0  0  0
 33  4  1  0  0  0  0
 34 10  1  0  0  0  0
 35 23  1  0  0  0  0
 37 27  1  0  0  0  0
M  END
$$$$
scan_sander_basal_param/min_pdbs/min_pdb_C169_300.pdb
 OpenBabel10021702133D

 39 44  0  0  1  0  0  0  0  0999 V2000
   -0.5640    0.3790    0.0870 C   0  0  0  0  0  0  0  0  0  0  0  0
   -0.1780    0.9660   -1.1250 C   0  0  0  0  0  0  0  0  0  0  0  0
   -0.1180    0.9540    1.2850 C   0  0  0  0  0  0  0  0  0  0  0  0
    0.6400    2.1040   -1.0810 C   0  0  0  0  0  0  0  0  0  0  0  0
    0.6670    2.0460    1.3170 N   0  0  0  0  0  0  0  0  0  0  0  0
    1.0620    2.6380    0.1670 C   0  0  0  0  0  0  0  0  0  0  0  0
    1.9390    3.8680    0.2450 C   0  0  0  0  0  0  0  0  0  0  0  0
    1.9210    4.6750   -0.8380 N   0  0  0  0  0  0  0  0  0  0  0  0
    2.7750    4.2130    1.3420 C   0  0  0  0  0  0  0  0  0  0  0  0
    2.6690    5.7960   -0.8780 C   0  0  0  0  0  0  0  0  0  0  0  0
    2.9300    3.4740    2.4640 N   0  0  0  0  0  0  0  0  0  0  0  0
    3.5440    5.3760    1.3030 C   0  0  0  0  0  0  0  0  0  0  0  0
    3.5140    6.2320    0.1690 C   0  0  0  0  0  0  0  0  0  0  0  0
    4.0010    4.2870    3.3860 S   0  0  0  0  0  0  0  0  0  0  0  0
    4.3060    5.5570    2.4040 N   0  0  0  0  0  0  0  0  0  0  0  0
    4.3240    7.4820    0.0440 C   0  0  1  0  0  0  0  0  0  0  0  0
    5.1700    8.2050    1.4450 B   0  0  0  0  0  0  0  0  0  0  0  0
    4.5610    8.2760   -1.1770 C   0  0  0  0  0  0  0  0  0  0  0  0
    5.7030    9.5390    0.4370 C   0  0  0  0  0  0  0  0  0  0  0  0
    4.1690    7.9380   -2.4240 N   0  0  0  0  0  0  0  0  0  0  0  0
    5.3230    9.4240   -0.9510 C   0  0  0  0  0  0  0  0  0  0  0  0
    6.5770   10.6000    0.8360 C   0  0  0  0  0  0  0  0  0  0  0  0
    4.5180    8.7890   -3.4140 C   0  0  0  0  0  0  0  0  0  0  0  0
    5.6870   10.2860   -1.9230 N   0  0  0  0  0  0  0  0  0  0  0  0
    6.2190   11.4190    1.8730 C   0  0  0  0  0  0  0  0  0  0  0  0
    8.2100   10.8900    0.2580 S   0  0  0  0  0  0  0  0  0  0  0  0
    5.2670    9.9590   -3.1640 C   0  0  0  0  0  0  0  0  0  0  0  0
    7.2500   12.3490    2.1970 C   0  0  0  0  0  0  0  0  0  0  0  0
    8.3780   12.2040    1.4230 C   0  0  0  0  0  0  0  0  0  0  0  0
   -1.1960   -0.5030    0.1000 H   0  0  0  0  0  0  0  0  0  0  0  0
   -0.5030    0.5510   -2.0750 H   0  0  0  0  0  0  0  0  0  0  0  0
   -0.3960    0.5290    2.2490 H   0  0  0  0  0  0  0  0  0  0  0  0
    0.9530    2.5720   -2.0100 H   0  0  0  0  0  0  0  0  0  0  0  0
    2.5240    6.3730   -1.7830 H   0  0  0  0  0  0  0  0  0  0  0  0
    4.1960    8.5300   -4.4210 H   0  0  0  0  0  0  0  0  0  0  0  0
    5.2660   11.3760    2.3880 H   0  0  0  0  0  0  0  0  0  0  0  0
    5.5430   10.6370   -3.9710 H   0  0  0  0  0  0  0  0  0  0  0  0
    7.1500   13.0910    2.9830 H   0  0  0  0  0  0  0  0  0  0  0  0
    9.2980   12.7720    1.4590 H   0  0  0  0  0  0  0  0  0  0  0  0
  1 30  1  0  0  0  0
  1  3  2  0  0  0  0
  2  4  2  0  0  0  0
  2  1  1  0  0  0  0
  3  5  1  0  0  0  0
  3 32  1  0  0  0  0
  4  6  1  0  0  0  0
  6  7  1  0  0  0  0
  6  5  2  0  0  0  0
  7  9  1  0  0  0  0
  8  7  2  0  0  0  0
  9 11  2  0  0  0  0
 10  8  1  0  0  0  0
 10 13  2  0  0  0  0
 11 14  1  0  0  0  0
 12  9  1  0  0  0  0
 12 15  2  0  0  0  0
 13 12  1  0  0  0  0
 15 14  1  0  0  0  0
 16 13  1  6  0  0  0
 16 17  1  0  0  0  0
 18 21  1  0  0  0  0
 18 16  1  0  0  0  0
 19 22  1  0  0  0  0
 19 17  2  0  0  0  0
 20 18  2  0  0  0  0
 21 19  1  0  0  0  0
 22 25  2  0  0  0  0
 23 27  2  0  0  0  0
 23 20  1  0  0  0  0
 24 21  2  0  0  0  0
 25 28  1  0  0  0  0
 25 36  1  0  0  0  0
 26 22  1  0  0  0  0
 26 29  1  0  0  0  0
 27 24  1  0  0  0  0
 28 38  1  0  0  0  0
 29 39  1  0  0  0  0
 29 28  2  0  0  0  0
 31  2  1  0  0  0  0
 33  4  1  0  0  0  0
 34 10  1  0  0  0  0
 35 23  1  0  0  0  0
 37 27  1  0  0  0  0
M  END
$$$$
scan_sander_basal_param/min_pdbs/min_pdb_C169_315.pdb
 OpenBabel10021702133D

 39 44  0  0  1  0  0  0  0  0999 V2000
   -0.5490    0.3750    0.1120 C   0  0  0  0  0  0  0  0  0  0  0  0
   -0.1400    0.9380   -1.1030 C   0  0  0  0  0  0  0  0  0  0  0  0
   -0.1310    0.9780    1.3070 C   0  0  0  0  0  0  0  0  0  0  0  0
    0.6720    2.0810   -1.0670 C   0  0  0  0  0  0  0  0  0  0  0  0
    0.6470    2.0760    1.3320 N   0  0  0  0  0  0  0  0  0  0  0  0
    1.0640    2.6440    0.1780 C   0  0  0  0  0  0  0  0  0  0  0  0
    1.9330    3.8800    0.2480 C   0  0  0  0  0  0  0  0  0  0  0  0
    1.9340    4.6640   -0.8530 N   0  0  0  0  0  0  0  0  0  0  0  0
    2.7430    4.2540    1.3550 C   0  0  0  0  0  0  0  0  0  0  0  0
    2.6760    5.7870   -0.9010 C   0  0  0  0  0  0  0  0  0  0  0  0
    2.8780    3.5400    2.4950 N   0  0  0  0  0  0  0  0  0  0  0  0
    3.5070    5.4200    1.3060 C   0  0  0  0  0  0  0  0  0  0  0  0
    3.4970    6.2520    0.1530 C   0  0  0  0  0  0  0  0  0  0  0  0
    3.9250    4.3790    3.4210 S   0  0  0  0  0  0  0  0  0  0  0  0
    4.2440    5.6290    2.4200 N   0  0  0  0  0  0  0  0  0  0  0  0
    4.3020    7.5040    0.0200 C   0  0  1  0  0  0  0  0  0  0  0  0
    5.1140    8.2600    1.4230 B   0  0  0  0  0  0  0  0  0  0  0  0
    4.5640    8.2750   -1.2110 C   0  0  0  0  0  0  0  0  0  0  0  0
    5.6840    9.5680    0.3990 C   0  0  0  0  0  0  0  0  0  0  0  0
    4.1800    7.9200   -2.4550 N   0  0  0  0  0  0  0  0  0  0  0  0
    5.3250    9.4260   -0.9940 C   0  0  0  0  0  0  0  0  0  0  0  0
    6.5500   10.6350    0.8120 C   0  0  0  0  0  0  0  0  0  0  0  0
    4.5350    8.7560   -3.4550 C   0  0  0  0  0  0  0  0  0  0  0  0
    5.6870   10.2760   -1.9780 N   0  0  0  0  0  0  0  0  0  0  0  0
    6.3130   11.2760    2.0000 C   0  0  0  0  0  0  0  0  0  0  0  0
    8.0410   11.1590    0.0390 S   0  0  0  0  0  0  0  0  0  0  0  0
    5.2780    9.9310   -3.2170 C   0  0  0  0  0  0  0  0  0  0  0  0
    7.3140   12.2450    2.2960 C   0  0  0  0  0  0  0  0  0  0  0  0
    8.3070   12.3130    1.3460 C   0  0  0  0  0  0  0  0  0  0  0  0
   -1.1770   -0.5100    0.1310 H   0  0  0  0  0  0  0  0  0  0  0  0
   -0.4430    0.5000   -2.0510 H   0  0  0  0  0  0  0  0  0  0  0  0
   -0.4280    0.5720    2.2740 H   0  0  0  0  0  0  0  0  0  0  0  0
    1.0010    2.5310   -1.9990 H   0  0  0  0  0  0  0  0  0  0  0  0
    2.5470    6.3420   -1.8220 H   0  0  0  0  0  0  0  0  0  0  0  0
    4.2190    8.4820   -4.4610 H   0  0  0  0  0  0  0  0  0  0  0  0
    5.4620   11.0800    2.6430 H   0  0  0  0  0  0  0  0  0  0  0  0
    5.5560   10.5990   -4.0310 H   0  0  0  0  0  0  0  0  0  0  0  0
    7.2920   12.8630    3.1890 H   0  0  0  0  0  0  0  0  0  0  0  0
    9.1780   12.9540    1.3250 H   0  0  0  0  0  0  0  0  0  0  0  0
  1 30  1  0  0  0  0
  1  3  2  0  0  0  0
  2  4  2  0  0  0  0
  2  1  1  0  0  0  0
  3  5  1  0  0  0  0
  3 32  1  0  0  0  0
  4  6  1  0  0  0  0
  6  7  1  0  0  0  0
  6  5  2  0  0  0  0
  7  9  1  0  0  0  0
  8  7  2  0  0  0  0
  9 11  2  0  0  0  0
 10  8  1  0  0  0  0
 10 13  2  0  0  0  0
 11 14  1  0  0  0  0
 12  9  1  0  0  0  0
 12 15  2  0  0  0  0
 13 12  1  0  0  0  0
 15 14  1  0  0  0  0
 16 13  1  6  0  0  0
 16 17  1  0  0  0  0
 18 21  1  0  0  0  0
 18 16  1  0  0  0  0
 19 22  1  0  0  0  0
 19 17  2  0  0  0  0
 20 18  2  0  0  0  0
 21 19  1  0  0  0  0
 22 25  2  0  0  0  0
 23 27  2  0  0  0  0
 23 20  1  0  0  0  0
 24 21  2  0  0  0  0
 25 28  1  0  0  0  0
 25 36  1  0  0  0  0
 26 22  1  0  0  0  0
 26 29  1  0  0  0  0
 27 24  1  0  0  0  0
 28 38  1  0  0  0  0
 29 28  2  0  0  0  0
 31  2  1  0  0  0  0
 33  4  1  0  0  0  0
 34 10  1  0  0  0  0
 35 23  1  0  0  0  0
 37 27  1  0  0  0  0
 39 29  1  0  0  0  0
M  END
$$$$
scan_sander_basal_param/min_pdbs/min_pdb_C169_330.pdb
 OpenBabel10021702133D

 39 44  0  0  1  0  0  0  0  0999 V2000
   -0.5030    0.3490    0.1260 C   0  0  0  0  0  0  0  0  0  0  0  0
   -0.0680    0.8910   -1.0900 C   0  0  0  0  0  0  0  0  0  0  0  0
   -0.1300    0.9870    1.3180 C   0  0  0  0  0  0  0  0  0  0  0  0
    0.7230    2.0480   -1.0570 C   0  0  0  0  0  0  0  0  0  0  0  0
    0.6290    2.0970    1.3400 N   0  0  0  0  0  0  0  0  0  0  0  0
    1.0700    2.6460    0.1850 C   0  0  0  0  0  0  0  0  0  0  0  0
    1.9180    3.8970    0.2510 C   0  0  0  0  0  0  0  0  0  0  0  0
    1.9390    4.6550   -0.8670 N   0  0  0  0  0  0  0  0  0  0  0  0
    2.6900    4.3090    1.3710 C   0  0  0  0  0  0  0  0  0  0  0  0
    2.6670    5.7870   -0.9220 C   0  0  0  0  0  0  0  0  0  0  0  0
    2.8000    3.6260    2.5320 N   0  0  0  0  0  0  0  0  0  0  0  0
    3.4400    5.4840    1.3150 C   0  0  0  0  0  0  0  0  0  0  0  0
    3.4540    6.2880    0.1420 C   0  0  0  0  0  0  0  0  0  0  0  0
    3.8090    4.5000    3.4670 S   0  0  0  0  0  0  0  0  0  0  0  0
    4.1410    5.7300    2.4450 N   0  0  0  0  0  0  0  0  0  0  0  0
    4.2500    7.5450    0.0010 C   0  0  1  0  0  0  0  0  0  0  0  0
    5.0130    8.3410    1.4060 B   0  0  0  0  0  0  0  0  0  0  0  0
    4.5400    8.2900   -1.2380 C   0  0  0  0  0  0  0  0  0  0  0  0
    5.6400    9.6140    0.3690 C   0  0  0  0  0  0  0  0  0  0  0  0
    4.1650    7.9180   -2.4800 N   0  0  0  0  0  0  0  0  0  0  0  0
    5.3050    9.4430   -1.0310 C   0  0  0  0  0  0  0  0  0  0  0  0
    6.5180   10.6740    0.7940 C   0  0  0  0  0  0  0  0  0  0  0  0
    4.5310    8.7350   -3.4910 C   0  0  0  0  0  0  0  0  0  0  0  0
    5.6700   10.2760   -2.0280 N   0  0  0  0  0  0  0  0  0  0  0  0
    6.4460   11.1280    2.0870 C   0  0  0  0  0  0  0  0  0  0  0  0
    7.8400   11.4160   -0.1040 S   0  0  0  0  0  0  0  0  0  0  0  0
    5.2730    9.9120   -3.2650 C   0  0  0  0  0  0  0  0  0  0  0  0
    7.4340   12.1160    2.3720 C   0  0  0  0  0  0  0  0  0  0  0  0
    8.2570   12.3890    1.3060 C   0  0  0  0  0  0  0  0  0  0  0  0
   -1.1160   -0.5460    0.1480 H   0  0  0  0  0  0  0  0  0  0  0  0
   -0.3360    0.4260   -2.0360 H   0  0  0  0  0  0  0  0  0  0  0  0
   -0.4490    0.5980    2.2850 H   0  0  0  0  0  0  0  0  0  0  0  0
    1.0730    2.4820   -1.9900 H   0  0  0  0  0  0  0  0  0  0  0  0
    2.5560    6.3170   -1.8600 H   0  0  0  0  0  0  0  0  0  0  0  0
    4.2230    8.4440   -4.4940 H   0  0  0  0  0  0  0  0  0  0  0  0
    5.7220   10.7900    2.8190 H   0  0  0  0  0  0  0  0  0  0  0  0
    5.5590   10.5670   -4.0870 H   0  0  0  0  0  0  0  0  0  0  0  0
    7.5240   12.5980    3.3400 H   0  0  0  0  0  0  0  0  0  0  0  0
    9.0820   13.0870    1.2500 H   0  0  0  0  0  0  0  0  0  0  0  0
  1 30  1  0  0  0  0
  1  3  2  0  0  0  0
  2  4  2  0  0  0  0
  2  1  1  0  0  0  0
  3  5  1  0  0  0  0
  3 32  1  0  0  0  0
  4  6  1  0  0  0  0
  6  7  1  0  0  0  0
  6  5  2  0  0  0  0
  7  9  1  0  0  0  0
  8  7  2  0  0  0  0
  9 11  2  0  0  0  0
 10  8  1  0  0  0  0
 10 13  2  0  0  0  0
 11 14  1  0  0  0  0
 12  9  1  0  0  0  0
 12 15  2  0  0  0  0
 13 12  1  0  0  0  0
 15 14  1  0  0  0  0
 16 13  1  6  0  0  0
 16 17  1  0  0  0  0
 18 21  1  0  0  0  0
 18 16  1  0  0  0  0
 19 22  1  0  0  0  0
 19 17  2  0  0  0  0
 20 18  2  0  0  0  0
 21 19  1  0  0  0  0
 22 25  2  0  0  0  0
 23 27  2  0  0  0  0
 23 20  1  0  0  0  0
 24 21  2  0  0  0  0
 25 28  1  0  0  0  0
 25 36  1  0  0  0  0
 26 22  1  0  0  0  0
 26 29  1  0  0  0  0
 27 24  1  0  0  0  0
 28 38  1  0  0  0  0
 29 28  2  0  0  0  0
 31  2  1  0  0  0  0
 33  4  1  0  0  0  0
 34 10  1  0  0  0  0
 35 23  1  0  0  0  0
 37 27  1  0  0  0  0
 39 29  1  0  0  0  0
M  END
$$$$
scan_sander_basal_param/min_pdbs/min_pdb_C169_345.pdb
 OpenBabel10021702133D

 39 44  0  0  1  0  0  0  0  0999 V2000
   -0.5440    0.3810    0.1530 C   0  0  0  0  0  0  0  0  0  0  0  0
   -0.1070    0.9120   -1.0680 C   0  0  0  0  0  0  0  0  0  0  0  0
   -0.1590    1.0190    1.3400 C   0  0  0  0  0  0  0  0  0  0  0  0
    0.6980    2.0600   -1.0440 C   0  0  0  0  0  0  0  0  0  0  0  0
    0.6140    2.1210    1.3540 N   0  0  0  0  0  0  0  0  0  0  0  0
    1.0570    2.6590    0.1940 C   0  0  0  0  0  0  0  0  0  0  0  0
    1.9190    3.9010    0.2510 C   0  0  0  0  0  0  0  0  0  0  0  0
    1.9440    4.6530   -0.8700 N   0  0  0  0  0  0  0  0  0  0  0  0
    2.7010    4.3090    1.3660 C   0  0  0  0  0  0  0  0  0  0  0  0
    2.6830    5.7780   -0.9320 C   0  0  0  0  0  0  0  0  0  0  0  0
    2.8090    3.6280    2.5300 N   0  0  0  0  0  0  0  0  0  0  0  0
    3.4620    5.4760    1.3040 C   0  0  0  0  0  0  0  0  0  0  0  0
    3.4780    6.2760    0.1280 C   0  0  0  0  0  0  0  0  0  0  0  0
    3.8310    4.4960    3.4570 S   0  0  0  0  0  0  0  0  0  0  0  0
    4.1700    5.7200    2.4290 N   0  0  0  0  0  0  0  0  0  0  0  0
    4.2830    7.5260   -0.0210 C   0  0  1  0  0  0  0  0  0  0  0  0
    5.0570    8.3210    1.3770 B   0  0  0  0  0  0  0  0  0  0  0  0
    4.5760    8.2650   -1.2610 C   0  0  0  0  0  0  0  0  0  0  0  0
    5.6710    9.6060    0.3420 C   0  0  0  0  0  0  0  0  0  0  0  0
    4.2110    7.8750   -2.5010 N   0  0  0  0  0  0  0  0  0  0  0  0
    5.3360    9.4230   -1.0600 C   0  0  0  0  0  0  0  0  0  0  0  0
    6.4900   10.7090    0.7900 C   0  0  0  0  0  0  0  0  0  0  0  0
    4.5810    8.6790   -3.5200 C   0  0  0  0  0  0  0  0  0  0  0  0
    5.7070   10.2400   -2.0690 N   0  0  0  0  0  0  0  0  0  0  0  0
    6.5820   10.9750    2.1350 C   0  0  0  0  0  0  0  0  0  0  0  0
    7.5150   11.7850   -0.1610 S   0  0  0  0  0  0  0  0  0  0  0  0
    5.3190    9.8600   -3.3050 C   0  0  0  0  0  0  0  0  0  0  0  0
    7.4600   12.0600    2.4240 C   0  0  0  0  0  0  0  0  0  0  0  0
    8.0400   12.6070    1.3050 C   0  0  0  0  0  0  0  0  0  0  0  0
   -1.1690   -0.5060    0.1810 H   0  0  0  0  0  0  0  0  0  0  0  0
   -0.3850    0.4470   -2.0100 H   0  0  0  0  0  0  0  0  0  0  0  0
   -0.4770    0.6390    2.3100 H   0  0  0  0  0  0  0  0  0  0  0  0
    1.0480    2.4850   -1.9790 H   0  0  0  0  0  0  0  0  0  0  0  0
    2.5740    6.3060   -1.8710 H   0  0  0  0  0  0  0  0  0  0  0  0
    4.2810    8.3740   -4.5220 H   0  0  0  0  0  0  0  0  0  0  0  0
    6.0490   10.4390    2.9110 H   0  0  0  0  0  0  0  0  0  0  0  0
    5.6100   10.5050   -4.1330 H   0  0  0  0  0  0  0  0  0  0  0  0
    7.6490   12.4140    3.4320 H   0  0  0  0  0  0  0  0  0  0  0  0
    8.7390   13.4300    1.2380 H   0  0  0  0  0  0  0  0  0  0  0  0
  1 30  1  0  0  0  0
  1  3  2  0  0  0  0
  2  4  2  0  0  0  0
  2  1  1  0  0  0  0
  3  5  1  0  0  0  0
  3 32  1  0  0  0  0
  4  6  1  0  0  0  0
  6  7  1  0  0  0  0
  6  5  2  0  0  0  0
  7  9  1  0  0  0  0
  8  7  2  0  0  0  0
  9 11  2  0  0  0  0
 10  8  1  0  0  0  0
 10 13  2  0  0  0  0
 11 14  1  0  0  0  0
 12  9  1  0  0  0  0
 12 15  2  0  0  0  0
 13 12  1  0  0  0  0
 15 14  1  0  0  0  0
 16 13  1  6  0  0  0
 16 17  1  0  0  0  0
 18 21  1  0  0  0  0
 18 16  1  0  0  0  0
 19 22  1  0  0  0  0
 19 17  2  0  0  0  0
 20 18  2  0  0  0  0
 21 19  1  0  0  0  0
 22 25  2  0  0  0  0
 23 27  2  0  0  0  0
 23 20  1  0  0  0  0
 24 21  2  0  0  0  0
 25 28  1  0  0  0  0
 25 36  1  0  0  0  0
 26 22  1  0  0  0  0
 26 29  1  0  0  0  0
 27 24  1  0  0  0  0
 28 38  1  0  0  0  0
 29 28  2  0  0  0  0
 31  2  1  0  0  0  0
 33  4  1  0  0  0  0
 34 10  1  0  0  0  0
 35 23  1  0  0  0  0
 37 27  1  0  0  0  0
 39 29  1  0  0  0  0
M  END
$$$$
scan_sander_basal_param/min_pdbs/min_pdb_C169_360.pdb
 OpenBabel10021702133D

 39 44  0  0  1  0  0  0  0  0999 V2000
   -0.8320    0.6550    0.2280 C   0  0  0  0  0  0  0  0  0  0  0  0
   -0.4370    1.1910   -1.0040 C   0  0  0  0  0  0  0  0  0  0  0  0
   -0.2780    1.1880    1.4020 C   0  0  0  0  0  0  0  0  0  0  0  0
    0.4940    2.2390   -1.0050 C   0  0  0  0  0  0  0  0  0  0  0  0
    0.6170    2.1920    1.3920 N   0  0  0  0  0  0  0  0  0  0  0  0
    1.0170    2.7370    0.2200 C   0  0  0  0  0  0  0  0  0  0  0  0
    2.0090    3.8790    0.2490 C   0  0  0  0  0  0  0  0  0  0  0  0
    2.0130    4.6720   -0.8430 N   0  0  0  0  0  0  0  0  0  0  0  0
    2.9240    4.1590    1.3010 C   0  0  0  0  0  0  0  0  0  0  0  0
    2.8350    5.7350   -0.9210 C   0  0  0  0  0  0  0  0  0  0  0  0
    3.0840    3.4070    2.4140 N   0  0  0  0  0  0  0  0  0  0  0  0
    3.7660    5.2690    1.2260 C   0  0  0  0  0  0  0  0  0  0  0  0
    3.7340    6.1290    0.0960 C   0  0  0  0  0  0  0  0  0  0  0  0
    4.2580    4.1430    3.2770 S   0  0  0  0  0  0  0  0  0  0  0  0
    4.5940    5.4000    2.2850 N   0  0  0  0  0  0  0  0  0  0  0  0
    4.5900    7.3430   -0.0580 C   0  0  1  0  0  0  0  0  0  0  0  0
    5.5230    8.0420    1.2930 B   0  0  0  0  0  0  0  0  0  0  0  0
    4.8090    8.1190   -1.2890 C   0  0  0  0  0  0  0  0  0  0  0  0
    5.9400    9.4430    0.3000 C   0  0  0  0  0  0  0  0  0  0  0  0
    4.4380    7.7210   -2.5240 N   0  0  0  0  0  0  0  0  0  0  0  0
    5.5560    9.2830   -1.0940 C   0  0  0  0  0  0  0  0  0  0  0  0
    6.4720   10.6960    0.7920 C   0  0  0  0  0  0  0  0  0  0  0  0
    4.7870    8.5260   -3.5470 C   0  0  0  0  0  0  0  0  0  0  0  0
    5.9370   10.0840   -2.1110 N   0  0  0  0  0  0  0  0  0  0  0  0
    6.6880   10.8600    2.1400 C   0  0  0  0  0  0  0  0  0  0  0  0
    6.7580   12.1950   -0.0960 S   0  0  0  0  0  0  0  0  0  0  0  0
    5.5340    9.7030   -3.3420 C   0  0  0  0  0  0  0  0  0  0  0  0
    7.1040   12.1810    2.4770 C   0  0  0  0  0  0  0  0  0  0  0  0
    7.1930   13.0210    1.3940 C   0  0  0  0  0  0  0  0  0  0  0  0
   -1.5520   -0.1550    0.2760 H   0  0  0  0  0  0  0  0  0  0  0  0
   -0.8430    0.8060   -1.9360 H   0  0  0  0  0  0  0  0  0  0  0  0
   -0.5620    0.8010    2.3800 H   0  0  0  0  0  0  0  0  0  0  0  0
    0.8080    2.6700   -1.9510 H   0  0  0  0  0  0  0  0  0  0  0  0
    2.6880    6.3160   -1.8230 H   0  0  0  0  0  0  0  0  0  0  0  0
    4.4740    8.2190   -4.5440 H   0  0  0  0  0  0  0  0  0  0  0  0
    6.5530   10.0880    2.8880 H   0  0  0  0  0  0  0  0  0  0  0  0
    5.8240   10.3410   -4.1760 H   0  0  0  0  0  0  0  0  0  0  0  0
    7.3150   12.4920    3.4950 H   0  0  0  0  0  0  0  0  0  0  0  0
    7.4720   14.0670    1.3670 H   0  0  0  0  0  0  0  0  0  0  0  0
  1 30  1  0  0  0  0
  1  3  2  0  0  0  0
  2  1  1  0  0  0  0
  3 32  1  0  0  0  0
  4  2  2  0  0  0  0
  4  6  1  0  0  0  0
  5  3  1  0  0  0  0
  6  7  1  0  0  0  0
  6  5  2  0  0  0  0
  7  9  1  0  0  0  0
  8  7  2  0  0  0  0
  9 11  2  0  0  0  0
 10  8  1  0  0  0  0
 10 13  2  0  0  0  0
 11 14  1  0  0  0  0
 12  9  1  0  0  0  0
 12 15  2  0  0  0  0
 13 12  1  0  0  0  0
 15 14  1  0  0  0  0
 16 13  1  6  0  0  0
 16 17  1  0  0  0  0
 18 21  1  0  0  0  0
 18 16  1  0  0  0  0
 19 22  1  0  0  0  0
 19 17  2  0  0  0  0
 20 18  2  0  0  0  0
 21 19  1  0  0  0  0
 22 25  2  0  0  0  0
 23 27  2  0  0  0  0
 23 20  1  0  0  0  0
 24 21  2  0  0  0  0
 25 28  1  0  0  0  0
 25 36  1  0  0  0  0
 26 22  1  0  0  0  0
 26 29  1  0  0  0  0
 27 24  1  0  0  0  0
 28 38  1  0  0  0  0
 29 28  2  0  0  0  0
 31  2  1  0  0  0  0
 33  4  1  0  0  0  0
 34 10  1  0  0  0  0
 35 23  1  0  0  0  0
 37 27  1  0  0  0  0
 39 29  1  0  0  0  0
M  END
$$$$
