scan_sander_basal_param/min_pdbs/min_pdb_C271_000.pdb
 OpenBabel10021702243D

 37 42  0  0  1  0  0  0  0  0999 V2000
   -0.3790    0.1780   -0.1250 C   0  0  0  0  0  0  0  0  0  0  0  0
    0.0150    0.8260   -1.3010 C   0  0  0  0  0  0  0  0  0  0  0  0
   -0.0460    0.6410    1.0900 N   0  0  0  0  0  0  0  0  0  0  0  0
    0.7840    1.9970   -1.2100 C   0  0  0  0  0  0  0  0  0  0  0  0
    0.6920    1.7670    1.1740 C   0  0  0  0  0  0  0  0  0  0  0  0
    1.1610    2.5260    0.0590 C   0  0  0  0  0  0  0  0  0  0  0  0
    1.9960    3.7980    0.1670 C   0  0  0  0  0  0  0  0  0  0  0  0
    2.4180    4.4860   -1.0020 C   0  0  0  0  0  0  0  0  0  0  0  0
    2.4320    4.4180    1.3760 C   0  0  0  0  0  0  0  0  0  0  0  0
    3.1550    5.6110   -1.0130 N   0  0  0  0  0  0  0  0  0  0  0  0
    2.1630    3.9630    2.6160 N   0  0  0  0  0  0  0  0  0  0  0  0
    3.1970    5.5850    1.3660 C   0  0  0  0  0  0  0  0  0  0  0  0
    3.5600    6.1860    0.1350 C   0  0  0  0  0  0  0  0  0  0  0  0
    2.8680    5.0010    3.6580 S   0  0  0  0  0  0  0  0  0  0  0  0
    3.5280    6.0480    2.5950 N   0  0  0  0  0  0  0  0  0  0  0  0
    4.3730    7.4270    0.0380 C   0  0  1  0  0  0  0  0  0  0  0  0
    5.0440    8.3560    1.4000 B   0  0  0  0  0  0  0  0  0  0  0  0
    4.7390    8.0550   -1.1430 C   0  0  0  0  0  0  0  0  0  0  0  0
    5.7850    9.5490    0.3300 C   0  0  0  0  0  0  0  0  0  0  0  0
    4.3880    7.6320   -2.8040 S   0  0  0  0  0  0  0  0  0  0  0  0
    5.5060    9.2070   -0.9710 C   0  0  0  0  0  0  0  0  0  0  0  0
    6.5580   10.6780    0.7840 C   0  0  0  0  0  0  0  0  0  0  0  0
    5.3180    9.0710   -3.2960 C   0  0  0  0  0  0  0  0  0  0  0  0
    5.8390    9.7910   -2.2310 C   0  0  0  0  0  0  0  0  0  0  0  0
    7.0870   11.5100   -0.0920 C   0  0  0  0  0  0  0  0  0  0  0  0
    6.8500   11.0260    2.4730 S   0  0  0  0  0  0  0  0  0  0  0  0
    7.7800   12.5080    0.5560 C   0  0  0  0  0  0  0  0  0  0  0  0
    7.7630   12.4120    1.9290 C   0  0  0  0  0  0  0  0  0  0  0  0
   -0.9760   -0.7330   -0.1550 H   0  0  0  0  0  0  0  0  0  0  0  0
   -0.2710    0.4240   -2.2680 H   0  0  0  0  0  0  0  0  0  0  0  0
    1.0720    2.4720   -2.1380 H   0  0  0  0  0  0  0  0  0  0  0  0
    0.9020    2.0500    2.1970 H   0  0  0  0  0  0  0  0  0  0  0  0
    2.1630    4.1350   -1.9960 H   0  0  0  0  0  0  0  0  0  0  0  0
    5.4170    9.2880   -4.3510 H   0  0  0  0  0  0  0  0  0  0  0  0
    6.4270   10.6920   -2.3540 H   0  0  0  0  0  0  0  0  0  0  0  0
    8.2740   13.2730   -0.0310 H   0  0  0  0  0  0  0  0  0  0  0  0
    8.2290   13.0670    2.6520 H   0  0  0  0  0  0  0  0  0  0  0  0
  1  3  2  0  0  0  0
  2  4  2  0  0  0  0
  2  1  1  0  0  0  0
  3  5  1  0  0  0  0
  4  6  1  0  0  0  0
  5 32  1  0  0  0  0
  6  7  1  0  0  0  0
  6  5  2  0  0  0  0
  7  9  1  0  0  0  0
  8  7  2  0  0  0  0
  9 11  2  0  0  0  0
 10  8  1  0  0  0  0
 10 13  2  0  0  0  0
 11 14  1  0  0  0  0
 12  9  1  0  0  0  0
 12 15  2  0  0  0  0
 13 12  1  0  0  0  0
 15 14  1  0  0  0  0
 16 13  1  6  0  0  0
 16 17  1  0  0  0  0
 18 21  2  0  0  0  0
 18 16  1  0  0  0  0
 19 22  1  0  0  0  0
 19 17  2  0  0  0  0
 20 18  1  0  0  0  0
 21 19  1  0  0  0  0
 22 26  1  0  0  0  0
 23 20  1  0  0  0  0
 23 24  2  0  0  0  0
 24 21  1  0  0  0  0
 25 27  1  0  0  0  0
 25 22  2  0  0  0  0
 27 28  2  0  0  0  0
 28 26  1  0  0  0  0
 28 37  1  0  0  0  0
 29  1  1  0  0  0  0
 30  2  1  0  0  0  0
 31  4  1  0  0  0  0
 33  8  1  0  0  0  0
 34 23  1  0  0  0  0
 35 24  1  0  0  0  0
 36 27  1  0  0  0  0
M  END
$$$$
scan_sander_basal_param/min_pdbs/min_pdb_C271_015.pdb
 OpenBabel10021702243D

 37 42  0  0  1  0  0  0  0  0999 V2000
   -0.4360    0.2370   -0.1180 C   0  0  0  0  0  0  0  0  0  0  0  0
    0.1960    0.7130   -1.2730 C   0  0  0  0  0  0  0  0  0  0  0  0
   -0.3160    0.8530    1.0700 N   0  0  0  0  0  0  0  0  0  0  0  0
    0.9860    1.8700   -1.1900 C   0  0  0  0  0  0  0  0  0  0  0  0
    0.4480    1.9620    1.1480 C   0  0  0  0  0  0  0  0  0  0  0  0
    1.1450    2.5470    0.0510 C   0  0  0  0  0  0  0  0  0  0  0  0
    1.9960    3.8000    0.1540 C   0  0  0  0  0  0  0  0  0  0  0  0
    2.3870    4.5010   -1.0150 C   0  0  0  0  0  0  0  0  0  0  0  0
    2.4650    4.3880    1.3630 C   0  0  0  0  0  0  0  0  0  0  0  0
    3.1230    5.6270   -1.0240 N   0  0  0  0  0  0  0  0  0  0  0  0
    2.2620    3.8760    2.5930 N   0  0  0  0  0  0  0  0  0  0  0  0
    3.2340    5.5520    1.3550 C   0  0  0  0  0  0  0  0  0  0  0  0
    3.5620    6.1780    0.1250 C   0  0  0  0  0  0  0  0  0  0  0  0
    3.0050    4.8860    3.6370 S   0  0  0  0  0  0  0  0  0  0  0  0
    3.6150    5.9740    2.5840 N   0  0  0  0  0  0  0  0  0  0  0  0
    4.3710    7.4210    0.0330 C   0  0  1  0  0  0  0  0  0  0  0  0
    5.0800    8.3200    1.3950 B   0  0  0  0  0  0  0  0  0  0  0  0
    4.7030    8.0750   -1.1440 C   0  0  0  0  0  0  0  0  0  0  0  0
    5.7900    9.5370    0.3320 C   0  0  0  0  0  0  0  0  0  0  0  0
    4.3060    7.6890   -2.8030 S   0  0  0  0  0  0  0  0  0  0  0  0
    5.4750    9.2240   -0.9680 C   0  0  0  0  0  0  0  0  0  0  0  0
    6.5750   10.6560    0.7890 C   0  0  0  0  0  0  0  0  0  0  0  0
    5.2210    9.1400   -3.2890 C   0  0  0  0  0  0  0  0  0  0  0  0
    5.7720    9.8360   -2.2240 C   0  0  0  0  0  0  0  0  0  0  0  0
    7.0800   11.5080   -0.0840 C   0  0  0  0  0  0  0  0  0  0  0  0
    6.9160   10.9670    2.4760 S   0  0  0  0  0  0  0  0  0  0  0  0
    7.7910   12.4920    0.5670 C   0  0  0  0  0  0  0  0  0  0  0  0
    7.8120   12.3660    1.9370 C   0  0  0  0  0  0  0  0  0  0  0  0
   -1.0570   -0.6580   -0.1420 H   0  0  0  0  0  0  0  0  0  0  0  0
    0.0790    0.1880   -2.2160 H   0  0  0  0  0  0  0  0  0  0  0  0
    1.4880    2.2100   -2.0890 H   0  0  0  0  0  0  0  0  0  0  0  0
    0.4530    2.4130    2.1340 H   0  0  0  0  0  0  0  0  0  0  0  0
    2.0710    4.1750   -2.0030 H   0  0  0  0  0  0  0  0  0  0  0  0
    5.2900    9.3800   -4.3420 H   0  0  0  0  0  0  0  0  0  0  0  0
    6.3560   10.7400   -2.3430 H   0  0  0  0  0  0  0  0  0  0  0  0
    8.2680   13.2700   -0.0170 H   0  0  0  0  0  0  0  0  0  0  0  0
    8.2980   13.0050    2.6610 H   0  0  0  0  0  0  0  0  0  0  0  0
  1  3  2  0  0  0  0
  2  4  2  0  0  0  0
  2  1  1  0  0  0  0
  3  5  1  0  0  0  0
  4  6  1  0  0  0  0
  5 32  1  0  0  0  0
  6  7  1  0  0  0  0
  6  5  2  0  0  0  0
  7  9  1  0  0  0  0
  8  7  2  0  0  0  0
  9 11  2  0  0  0  0
 10  8  1  0  0  0  0
 10 13  2  0  0  0  0
 11 14  1  0  0  0  0
 12  9  1  0  0  0  0
 12 15  2  0  0  0  0
 13 12  1  0  0  0  0
 15 14  1  0  0  0  0
 16 13  1  6  0  0  0
 16 17  1  0  0  0  0
 18 21  2  0  0  0  0
 18 16  1  0  0  0  0
 19 22  1  0  0  0  0
 19 17  2  0  0  0  0
 20 18  1  0  0  0  0
 21 19  1  0  0  0  0
 22 26  1  0  0  0  0
 23 20  1  0  0  0  0
 23 24  2  0  0  0  0
 24 21  1  0  0  0  0
 25 27  1  0  0  0  0
 25 22  2  0  0  0  0
 27 28  2  0  0  0  0
 28 26  1  0  0  0  0
 28 37  1  0  0  0  0
 29  1  1  0  0  0  0
 30  2  1  0  0  0  0
 31  4  1  0  0  0  0
 33  8  1  0  0  0  0
 34 23  1  0  0  0  0
 35 24  1  0  0  0  0
 36 27  1  0  0  0  0
M  END
$$$$
scan_sander_basal_param/min_pdbs/min_pdb_C271_030.pdb
 OpenBabel10021702243D

 37 42  0  0  1  0  0  0  0  0999 V2000
   -0.4600    0.2900   -0.0980 C   0  0  0  0  0  0  0  0  0  0  0  0
    0.3730    0.5980   -1.1830 C   0  0  0  0  0  0  0  0  0  0  0  0
   -0.5230    1.0560    1.0060 N   0  0  0  0  0  0  0  0  0  0  0  0
    1.1770    1.7470   -1.1190 C   0  0  0  0  0  0  0  0  0  0  0  0
    0.2550    2.1570    1.0680 C   0  0  0  0  0  0  0  0  0  0  0  0
    1.1390    2.5710    0.0350 C   0  0  0  0  0  0  0  0  0  0  0  0
    1.9880    3.8100    0.1250 C   0  0  0  0  0  0  0  0  0  0  0  0
    2.3300    4.5320   -1.0430 C   0  0  0  0  0  0  0  0  0  0  0  0
    2.4950    4.3560    1.3310 C   0  0  0  0  0  0  0  0  0  0  0  0
    3.0690    5.6570   -1.0470 N   0  0  0  0  0  0  0  0  0  0  0  0
    2.3190    3.8000    2.5470 N   0  0  0  0  0  0  0  0  0  0  0  0
    3.2660    5.5160    1.3300 C   0  0  0  0  0  0  0  0  0  0  0  0
    3.5500    6.1740    0.1040 C   0  0  0  0  0  0  0  0  0  0  0  0
    3.1010    4.7770    3.5960 S   0  0  0  0  0  0  0  0  0  0  0  0
    3.6860    5.8980    2.5590 N   0  0  0  0  0  0  0  0  0  0  0  0
    4.3600    7.4170    0.0190 C   0  0  1  0  0  0  0  0  0  0  0  0
    5.1180    8.2740    1.3820 B   0  0  0  0  0  0  0  0  0  0  0  0
    4.6540    8.1050   -1.1490 C   0  0  0  0  0  0  0  0  0  0  0  0
    5.7960    9.5200    0.3310 C   0  0  0  0  0  0  0  0  0  0  0  0
    4.1980    7.7680   -2.8040 S   0  0  0  0  0  0  0  0  0  0  0  0
    5.4350    9.2450   -0.9670 C   0  0  0  0  0  0  0  0  0  0  0  0
    6.6000   10.6230    0.7930 C   0  0  0  0  0  0  0  0  0  0  0  0
    5.1020    9.2300   -3.2790 C   0  0  0  0  0  0  0  0  0  0  0  0
    5.6900    9.8930   -2.2130 C   0  0  0  0  0  0  0  0  0  0  0  0
    7.0780   11.4990   -0.0720 C   0  0  0  0  0  0  0  0  0  0  0  0
    6.9990   10.8840    2.4760 S   0  0  0  0  0  0  0  0  0  0  0  0
    7.8140   12.4610    0.5820 C   0  0  0  0  0  0  0  0  0  0  0  0
    7.8820   12.2950    1.9470 C   0  0  0  0  0  0  0  0  0  0  0  0
   -1.0980   -0.5930   -0.1120 H   0  0  0  0  0  0  0  0  0  0  0  0
    0.3960   -0.0470   -2.0570 H   0  0  0  0  0  0  0  0  0  0  0  0
    1.8370    1.9830   -1.9480 H   0  0  0  0  0  0  0  0  0  0  0  0
    0.1350    2.7510    1.9710 H   0  0  0  0  0  0  0  0  0  0  0  0
    1.9740    4.2090   -2.0200 H   0  0  0  0  0  0  0  0  0  0  0  0
    5.1350    9.5010   -4.3260 H   0  0  0  0  0  0  0  0  0  0  0  0
    6.2740   10.7990   -2.3260 H   0  0  0  0  0  0  0  0  0  0  0  0
    8.2730   13.2550    0.0050 H   0  0  0  0  0  0  0  0  0  0  0  0
    8.3940   12.9110    2.6720 H   0  0  0  0  0  0  0  0  0  0  0  0
  1  3  2  0  0  0  0
  2  4  2  0  0  0  0
  2  1  1  0  0  0  0
  3  5  1  0  0  0  0
  4  6  1  0  0  0  0
  5 32  1  0  0  0  0
  6  7  1  0  0  0  0
  6  5  2  0  0  0  0
  7  9  1  0  0  0  0
  8  7  2  0  0  0  0
  9 11  2  0  0  0  0
 10  8  1  0  0  0  0
 10 13  2  0  0  0  0
 11 14  1  0  0  0  0
 12  9  1  0  0  0  0
 12 15  2  0  0  0  0
 13 12  1  0  0  0  0
 15 14  1  0  0  0  0
 16 13  1  6  0  0  0
 16 17  1  0  0  0  0
 18 21  2  0  0  0  0
 18 16  1  0  0  0  0
 19 22  1  0  0  0  0
 19 17  2  0  0  0  0
 20 18  1  0  0  0  0
 21 19  1  0  0  0  0
 22 26  1  0  0  0  0
 23 20  1  0  0  0  0
 23 24  2  0  0  0  0
 24 21  1  0  0  0  0
 25 27  1  0  0  0  0
 25 22  2  0  0  0  0
 27 28  2  0  0  0  0
 28 26  1  0  0  0  0
 28 37  1  0  0  0  0
 29  1  1  0  0  0  0
 30  2  1  0  0  0  0
 31  4  1  0  0  0  0
 33  8  1  0  0  0  0
 34 23  1  0  0  0  0
 35 24  1  0  0  0  0
 36 27  1  0  0  0  0
M  END
$$$$
scan_sander_basal_param/min_pdbs/min_pdb_C271_045.pdb
 OpenBabel10021702243D

 37 42  0  0  1  0  0  0  0  0999 V2000
   -0.4770    0.3280   -0.0790 C   0  0  0  0  0  0  0  0  0  0  0  0
    0.5300    0.4810   -1.0450 C   0  0  0  0  0  0  0  0  0  0  0  0
   -0.6970    1.2340    0.8930 N   0  0  0  0  0  0  0  0  0  0  0  0
    1.3450    1.6230   -1.0010 C   0  0  0  0  0  0  0  0  0  0  0  0
    0.0900    2.3290    0.9350 C   0  0  0  0  0  0  0  0  0  0  0  0
    1.1350    2.5880    0.0120 C   0  0  0  0  0  0  0  0  0  0  0  0
    1.9770    3.8220    0.0870 C   0  0  0  0  0  0  0  0  0  0  0  0
    2.2670    4.5730   -1.0730 C   0  0  0  0  0  0  0  0  0  0  0  0
    2.5250    4.3250    1.2890 C   0  0  0  0  0  0  0  0  0  0  0  0
    3.0120    5.6950   -1.0710 N   0  0  0  0  0  0  0  0  0  0  0  0
    2.3660    3.7340    2.4890 N   0  0  0  0  0  0  0  0  0  0  0  0
    3.2970    5.4820    1.2950 C   0  0  0  0  0  0  0  0  0  0  0  0
    3.5380    6.1760    0.0790 C   0  0  0  0  0  0  0  0  0  0  0  0
    3.1860    4.6760    3.5420 S   0  0  0  0  0  0  0  0  0  0  0  0
    3.7520    5.8250    2.5240 N   0  0  0  0  0  0  0  0  0  0  0  0
    4.3490    7.4180    0.0030 C   0  0  1  0  0  0  0  0  0  0  0  0
    5.1600    8.2280    1.3630 B   0  0  0  0  0  0  0  0  0  0  0  0
    4.6030    8.1400   -1.1530 C   0  0  0  0  0  0  0  0  0  0  0  0
    5.8040    9.5040    0.3280 C   0  0  0  0  0  0  0  0  0  0  0  0
    4.0860    7.8570   -2.8000 S   0  0  0  0  0  0  0  0  0  0  0  0
    5.3950    9.2720   -0.9640 C   0  0  0  0  0  0  0  0  0  0  0  0
    6.6290   10.5900    0.7940 C   0  0  0  0  0  0  0  0  0  0  0  0
    4.9780    9.3300   -3.2620 C   0  0  0  0  0  0  0  0  0  0  0  0
    5.6080    9.9580   -2.1980 C   0  0  0  0  0  0  0  0  0  0  0  0
    7.0790   11.4910   -0.0590 C   0  0  0  0  0  0  0  0  0  0  0  0
    7.0910   10.7960    2.4690 S   0  0  0  0  0  0  0  0  0  0  0  0
    7.8420   12.4300    0.5980 C   0  0  0  0  0  0  0  0  0  0  0  0
    7.9590   12.2210    1.9530 C   0  0  0  0  0  0  0  0  0  0  0  0
   -1.1280   -0.5460   -0.0820 H   0  0  0  0  0  0  0  0  0  0  0  0
    0.6750   -0.2750   -1.8110 H   0  0  0  0  0  0  0  0  0  0  0  0
    2.1350    1.7590   -1.7350 H   0  0  0  0  0  0  0  0  0  0  0  0
   -0.1300    3.0390    1.7310 H   0  0  0  0  0  0  0  0  0  0  0  0
    1.8770    4.2630   -2.0420 H   0  0  0  0  0  0  0  0  0  0  0  0
    4.9740    9.6340   -4.3000 H   0  0  0  0  0  0  0  0  0  0  0  0
    6.1910   10.8650   -2.3040 H   0  0  0  0  0  0  0  0  0  0  0  0
    8.2840   13.2400    0.0300 H   0  0  0  0  0  0  0  0  0  0  0  0
    8.5000   12.8130    2.6790 H   0  0  0  0  0  0  0  0  0  0  0  0
  1  3  2  0  0  0  0
  2  4  2  0  0  0  0
  2  1  1  0  0  0  0
  3  5  1  0  0  0  0
  4  6  1  0  0  0  0
  5 32  1  0  0  0  0
  6  7  1  0  0  0  0
  6  5  2  0  0  0  0
  7  9  1  0  0  0  0
  8 10  1  0  0  0  0
  8  7  2  0  0  0  0
  9 12  1  0  0  0  0
  9 11  2  0  0  0  0
 10 13  2  0  0  0  0
 11 14  1  0  0  0  0
 12 15  2  0  0  0  0
 13 12  1  0  0  0  0
 15 14  1  0  0  0  0
 16 13  1  6  0  0  0
 16 17  1  0  0  0  0
 18 21  2  0  0  0  0
 18 16  1  0  0  0  0
 19 22  1  0  0  0  0
 19 17  2  0  0  0  0
 20 18  1  0  0  0  0
 21 19  1  0  0  0  0
 22 26  1  0  0  0  0
 23 20  1  0  0  0  0
 23 24  2  0  0  0  0
 24 21  1  0  0  0  0
 25 27  1  0  0  0  0
 25 22  2  0  0  0  0
 27 28  2  0  0  0  0
 28 26  1  0  0  0  0
 28 37  1  0  0  0  0
 29  1  1  0  0  0  0
 30  2  1  0  0  0  0
 31  4  1  0  0  0  0
 33  8  1  0  0  0  0
 34 23  1  0  0  0  0
 35 24  1  0  0  0  0
 36 27  1  0  0  0  0
M  END
$$$$
scan_sander_basal_param/min_pdbs/min_pdb_C271_060.pdb
 OpenBabel10021702243D

 37 42  0  0  1  0  0  0  0  0999 V2000
   -0.4930    0.3530   -0.0810 C   0  0  0  0  0  0  0  0  0  0  0  0
    0.6670    0.3760   -0.8730 C   0  0  0  0  0  0  0  0  0  0  0  0
   -0.8530    1.3780    0.7160 N   0  0  0  0  0  0  0  0  0  0  0  0
    1.4900    1.5140   -0.8380 C   0  0  0  0  0  0  0  0  0  0  0  0
   -0.0600    2.4690    0.7490 C   0  0  0  0  0  0  0  0  0  0  0  0
    1.1290    2.6000   -0.0090 C   0  0  0  0  0  0  0  0  0  0  0  0
    1.9660    3.8320    0.0560 C   0  0  0  0  0  0  0  0  0  0  0  0
    2.2120    4.6120   -1.0930 C   0  0  0  0  0  0  0  0  0  0  0  0
    2.5550    4.2970    1.2500 C   0  0  0  0  0  0  0  0  0  0  0  0
    2.9600    5.7320   -1.0860 N   0  0  0  0  0  0  0  0  0  0  0  0
    2.4210    3.6740    2.4370 N   0  0  0  0  0  0  0  0  0  0  0  0
    3.3280    5.4530    1.2640 C   0  0  0  0  0  0  0  0  0  0  0  0
    3.5280    6.1790    0.0580 C   0  0  0  0  0  0  0  0  0  0  0  0
    3.2770    4.5850    3.4890 S   0  0  0  0  0  0  0  0  0  0  0  0
    3.8210    5.7600    2.4870 N   0  0  0  0  0  0  0  0  0  0  0  0
    4.3410    7.4210   -0.0110 C   0  0  1  0  0  0  0  0  0  0  0  0
    5.2000    8.1900    1.3440 B   0  0  0  0  0  0  0  0  0  0  0  0
    4.5560    8.1760   -1.1530 C   0  0  0  0  0  0  0  0  0  0  0  0
    5.8130    9.4930    0.3230 C   0  0  0  0  0  0  0  0  0  0  0  0
    3.9810    7.9410   -2.7890 S   0  0  0  0  0  0  0  0  0  0  0  0
    5.3590    9.2990   -0.9590 C   0  0  0  0  0  0  0  0  0  0  0  0
    6.6580   10.5630    0.7920 C   0  0  0  0  0  0  0  0  0  0  0  0
    4.8620    9.4250   -3.2390 C   0  0  0  0  0  0  0  0  0  0  0  0
    5.5310   10.0200   -2.1800 C   0  0  0  0  0  0  0  0  0  0  0  0
    7.0810   11.4870   -0.0500 C   0  0  0  0  0  0  0  0  0  0  0  0
    7.1780   10.7190    2.4550 S   0  0  0  0  0  0  0  0  0  0  0  0
    7.8700   12.4050    0.6060 C   0  0  0  0  0  0  0  0  0  0  0  0
    8.0340   12.1560    1.9500 C   0  0  0  0  0  0  0  0  0  0  0  0
   -1.1550   -0.5130   -0.0830 H   0  0  0  0  0  0  0  0  0  0  0  0
    0.9210   -0.4730   -1.4990 H   0  0  0  0  0  0  0  0  0  0  0  0
    2.3940    1.5570   -1.4380 H   0  0  0  0  0  0  0  0  0  0  0  0
   -0.3830    3.2760    1.4060 H   0  0  0  0  0  0  0  0  0  0  0  0
    1.7890    4.3240   -2.0560 H   0  0  0  0  0  0  0  0  0  0  0  0
    4.8230    9.7580   -4.2670 H   0  0  0  0  0  0  0  0  0  0  0  0
    6.1130   10.9280   -2.2800 H   0  0  0  0  0  0  0  0  0  0  0  0
    8.2950   13.2290    0.0460 H   0  0  0  0  0  0  0  0  0  0  0  0
    8.6020   12.7250    2.6730 H   0  0  0  0  0  0  0  0  0  0  0  0
  1  3  2  0  0  0  0
  2  4  2  0  0  0  0
  2  1  1  0  0  0  0
  3  5  1  0  0  0  0
  4  6  1  0  0  0  0
  5 32  1  0  0  0  0
  6  7  1  0  0  0  0
  6  5  2  0  0  0  0
  7  9  1  0  0  0  0
  8 10  1  0  0  0  0
  8  7  2  0  0  0  0
  9 12  1  0  0  0  0
  9 11  2  0  0  0  0
 10 13  2  0  0  0  0
 11 14  1  0  0  0  0
 12 15  2  0  0  0  0
 13 12  1  0  0  0  0
 15 14  1  0  0  0  0
 16 13  1  6  0  0  0
 16 17  1  0  0  0  0
 18 21  2  0  0  0  0
 18 16  1  0  0  0  0
 19 22  1  0  0  0  0
 19 17  2  0  0  0  0
 20 18  1  0  0  0  0
 21 19  1  0  0  0  0
 22 26  1  0  0  0  0
 23 20  1  0  0  0  0
 23 24  2  0  0  0  0
 24 21  1  0  0  0  0
 25 27  1  0  0  0  0
 25 22  2  0  0  0  0
 27 28  2  0  0  0  0
 28 26  1  0  0  0  0
 28 37  1  0  0  0  0
 29  1  1  0  0  0  0
 30  2  1  0  0  0  0
 31  4  1  0  0  0  0
 33  8  1  0  0  0  0
 34 23  1  0  0  0  0
 35 24  1  0  0  0  0
 36 27  1  0  0  0  0
M  END
$$$$
scan_sander_basal_param/min_pdbs/min_pdb_C271_075.pdb
 OpenBabel10021702243D

 37 42  0  0  1  0  0  0  0  0999 V2000
   -0.5140    0.3730   -0.1030 C   0  0  0  0  0  0  0  0  0  0  0  0
    0.7670    0.2960   -0.6760 C   0  0  0  0  0  0  0  0  0  0  0  0
   -0.9830    1.4910    0.4860 N   0  0  0  0  0  0  0  0  0  0  0  0
    1.5970    1.4280   -0.6380 C   0  0  0  0  0  0  0  0  0  0  0  0
   -0.1830    2.5760    0.5230 C   0  0  0  0  0  0  0  0  0  0  0  0
    1.1210    2.6090   -0.0260 C   0  0  0  0  0  0  0  0  0  0  0  0
    1.9590    3.8380    0.0360 C   0  0  0  0  0  0  0  0  0  0  0  0
    2.1630    4.6470   -1.1000 C   0  0  0  0  0  0  0  0  0  0  0  0
    2.5920    4.2690    1.2190 C   0  0  0  0  0  0  0  0  0  0  0  0
    2.9130    5.7660   -1.0900 N   0  0  0  0  0  0  0  0  0  0  0  0
    2.4960    3.6130    2.3920 N   0  0  0  0  0  0  0  0  0  0  0  0
    3.3670    5.4220    1.2360 C   0  0  0  0  0  0  0  0  0  0  0  0
    3.5240    6.1810    0.0440 C   0  0  0  0  0  0  0  0  0  0  0  0
    3.3900    4.4940    3.4380 S   0  0  0  0  0  0  0  0  0  0  0  0
    3.9030    5.6950    2.4490 N   0  0  0  0  0  0  0  0  0  0  0  0
    4.3360    7.4230   -0.0200 C   0  0  1  0  0  0  0  0  0  0  0  0
    5.2470    8.1530    1.3220 B   0  0  0  0  0  0  0  0  0  0  0  0
    4.5120    8.2080   -1.1490 C   0  0  0  0  0  0  0  0  0  0  0  0
    5.8250    9.4830    0.3160 C   0  0  0  0  0  0  0  0  0  0  0  0
    3.8770    8.0190   -2.7680 S   0  0  0  0  0  0  0  0  0  0  0  0
    5.3240    9.3250   -0.9540 C   0  0  0  0  0  0  0  0  0  0  0  0
    6.6890   10.5390    0.7820 C   0  0  0  0  0  0  0  0  0  0  0  0
    4.7440    9.5140   -3.2090 C   0  0  0  0  0  0  0  0  0  0  0  0
    5.4530   10.0790   -2.1600 C   0  0  0  0  0  0  0  0  0  0  0  0
    7.0820   11.4850   -0.0490 C   0  0  0  0  0  0  0  0  0  0  0  0
    7.2690   10.6490    2.4290 S   0  0  0  0  0  0  0  0  0  0  0  0
    7.8970   12.3840    0.6030 C   0  0  0  0  0  0  0  0  0  0  0  0
    8.1090   12.0980    1.9320 C   0  0  0  0  0  0  0  0  0  0  0  0
   -1.1840   -0.4860   -0.1140 H   0  0  0  0  0  0  0  0  0  0  0  0
    1.1060   -0.6250   -1.1390 H   0  0  0  0  0  0  0  0  0  0  0  0
    2.5930    1.3980   -1.0710 H   0  0  0  0  0  0  0  0  0  0  0  0
   -0.5950    3.4590    1.0100 H   0  0  0  0  0  0  0  0  0  0  0  0
    1.7050    4.3830   -2.0540 H   0  0  0  0  0  0  0  0  0  0  0  0
    4.6680    9.8760   -4.2260 H   0  0  0  0  0  0  0  0  0  0  0  0
    6.0330   10.9890   -2.2560 H   0  0  0  0  0  0  0  0  0  0  0  0
    8.3030   13.2230    0.0510 H   0  0  0  0  0  0  0  0  0  0  0  0
    8.7040   12.6460    2.6490 H   0  0  0  0  0  0  0  0  0  0  0  0
  1  3  2  0  0  0  0
  2  4  2  0  0  0  0
  2  1  1  0  0  0  0
  3  5  1  0  0  0  0
  4  6  1  0  0  0  0
  5 32  1  0  0  0  0
  6  7  1  0  0  0  0
  6  5  2  0  0  0  0
  7  9  1  0  0  0  0
  8 10  1  0  0  0  0
  8  7  2  0  0  0  0
  9 12  1  0  0  0  0
  9 11  2  0  0  0  0
 10 13  2  0  0  0  0
 11 14  1  0  0  0  0
 12 15  2  0  0  0  0
 13 12  1  0  0  0  0
 15 14  1  0  0  0  0
 16 13  1  6  0  0  0
 16 17  1  0  0  0  0
 18 21  2  0  0  0  0
 18 16  1  0  0  0  0
 19 22  1  0  0  0  0
 19 17  2  0  0  0  0
 20 18  1  0  0  0  0
 21 19  1  0  0  0  0
 22 26  1  0  0  0  0
 23 20  1  0  0  0  0
 23 24  2  0  0  0  0
 24 21  1  0  0  0  0
 25 27  1  0  0  0  0
 25 22  2  0  0  0  0
 27 28  2  0  0  0  0
 28 26  1  0  0  0  0
 28 37  1  0  0  0  0
 29  1  1  0  0  0  0
 30  2  1  0  0  0  0
 31  4  1  0  0  0  0
 33  8  1  0  0  0  0
 34 23  1  0  0  0  0
 35 24  1  0  0  0  0
 36 27  1  0  0  0  0
M  END
$$$$
scan_sander_basal_param/min_pdbs/min_pdb_C271_090.pdb
 OpenBabel10021702243D

 37 42  0  0  1  0  0  0  0  0999 V2000
   -0.5270    0.3860   -0.1420 C   0  0  0  0  0  0  0  0  0  0  0  0
    0.8330    0.2380   -0.4630 C   0  0  0  0  0  0  0  0  0  0  0  0
   -1.0680    1.5680    0.2140 N   0  0  0  0  0  0  0  0  0  0  0  0
    1.6690    1.3650   -0.4140 C   0  0  0  0  0  0  0  0  0  0  0  0
   -0.2620    2.6490    0.2630 C   0  0  0  0  0  0  0  0  0  0  0  0
    1.1190    2.6120   -0.0440 C   0  0  0  0  0  0  0  0  0  0  0  0
    1.9590    3.8390    0.0200 C   0  0  0  0  0  0  0  0  0  0  0  0
    2.1230    4.6760   -1.1020 C   0  0  0  0  0  0  0  0  0  0  0  0
    2.6350    4.2380    1.1900 C   0  0  0  0  0  0  0  0  0  0  0  0
    2.8740    5.7950   -1.0900 N   0  0  0  0  0  0  0  0  0  0  0  0
    2.5800    3.5510    2.3470 N   0  0  0  0  0  0  0  0  0  0  0  0
    3.4100    5.3900    1.2100 C   0  0  0  0  0  0  0  0  0  0  0  0
    3.5250    6.1800    0.0330 C   0  0  0  0  0  0  0  0  0  0  0  0
    3.5100    4.4060    3.3840 S   0  0  0  0  0  0  0  0  0  0  0  0
    3.9890    5.6320    2.4100 N   0  0  0  0  0  0  0  0  0  0  0  0
    4.3340    7.4240   -0.0280 C   0  0  1  0  0  0  0  0  0  0  0  0
    5.2920    8.1200    1.3000 B   0  0  0  0  0  0  0  0  0  0  0  0
    4.4700    8.2390   -1.1410 C   0  0  0  0  0  0  0  0  0  0  0  0
    5.8340    9.4770    0.3100 C   0  0  0  0  0  0  0  0  0  0  0  0
    3.7780    8.0920   -2.7410 S   0  0  0  0  0  0  0  0  0  0  0  0
    5.2880    9.3520   -0.9450 C   0  0  0  0  0  0  0  0  0  0  0  0
    6.7140   10.5200    0.7730 C   0  0  0  0  0  0  0  0  0  0  0  0
    4.6290    9.5980   -3.1730 C   0  0  0  0  0  0  0  0  0  0  0  0
    5.3750   10.1370   -2.1350 C   0  0  0  0  0  0  0  0  0  0  0  0
    7.0780   11.4890   -0.0470 C   0  0  0  0  0  0  0  0  0  0  0  0
    7.3520   10.5880    2.4000 S   0  0  0  0  0  0  0  0  0  0  0  0
    7.9150   12.3700    0.5990 C   0  0  0  0  0  0  0  0  0  0  0  0
    8.1730   12.0500    1.9120 C   0  0  0  0  0  0  0  0  0  0  0  0
   -1.2040   -0.4670   -0.1690 H   0  0  0  0  0  0  0  0  0  0  0  0
    1.2280   -0.7340   -0.7430 H   0  0  0  0  0  0  0  0  0  0  0  0
    2.7250    1.2810   -0.6540 H   0  0  0  0  0  0  0  0  0  0  0  0
   -0.7340    3.5850    0.5570 H   0  0  0  0  0  0  0  0  0  0  0  0
    1.6330    4.4360   -2.0460 H   0  0  0  0  0  0  0  0  0  0  0  0
    4.5180    9.9860   -4.1770 H   0  0  0  0  0  0  0  0  0  0  0  0
    5.9510   11.0490   -2.2280 H   0  0  0  0  0  0  0  0  0  0  0  0
    8.3000   13.2240    0.0550 H   0  0  0  0  0  0  0  0  0  0  0  0
    8.7940   12.5800    2.6220 H   0  0  0  0  0  0  0  0  0  0  0  0
  1  3  2  0  0  0  0
  2  4  2  0  0  0  0
  2  1  1  0  0  0  0
  3  5  1  0  0  0  0
  4  6  1  0  0  0  0
  5 32  1  0  0  0  0
  6  7  1  0  0  0  0
  6  5  2  0  0  0  0
  7  9  1  0  0  0  0
  8 10  1  0  0  0  0
  8  7  2  0  0  0  0
  9 12  1  0  0  0  0
  9 11  2  0  0  0  0
 10 13  2  0  0  0  0
 11 14  1  0  0  0  0
 12 15  2  0  0  0  0
 13 12  1  0  0  0  0
 15 14  1  0  0  0  0
 16 13  1  6  0  0  0
 16 17  1  0  0  0  0
 18 21  2  0  0  0  0
 18 16  1  0  0  0  0
 19 22  1  0  0  0  0
 19 17  2  0  0  0  0
 20 18  1  0  0  0  0
 21 19  1  0  0  0  0
 22 26  1  0  0  0  0
 23 20  1  0  0  0  0
 23 24  2  0  0  0  0
 24 21  1  0  0  0  0
 25 27  1  0  0  0  0
 25 22  2  0  0  0  0
 27 28  2  0  0  0  0
 28 26  1  0  0  0  0
 28 37  1  0  0  0  0
 29  1  1  0  0  0  0
 30  2  1  0  0  0  0
 31  4  1  0  0  0  0
 33  8  1  0  0  0  0
 34 23  1  0  0  0  0
 35 24  1  0  0  0  0
 36 27  1  0  0  0  0
M  END
$$$$
scan_sander_basal_param/min_pdbs/min_pdb_C271_105.pdb
 OpenBabel10021702243D

 37 42  0  0  1  0  0  0  0  0999 V2000
   -0.5410    0.3970   -0.1870 C   0  0  0  0  0  0  0  0  0  0  0  0
    0.8500    0.2060   -0.2370 C   0  0  0  0  0  0  0  0  0  0  0  0
   -1.1070    1.6150   -0.0790 N   0  0  0  0  0  0  0  0  0  0  0  0
    1.6920    1.3280   -0.1720 C   0  0  0  0  0  0  0  0  0  0  0  0
   -0.2960    2.6910   -0.0150 C   0  0  0  0  0  0  0  0  0  0  0  0
    1.1170    2.6140   -0.0590 C   0  0  0  0  0  0  0  0  0  0  0  0
    1.9620    3.8370    0.0070 C   0  0  0  0  0  0  0  0  0  0  0  0
    2.0880    4.7020   -1.0990 C   0  0  0  0  0  0  0  0  0  0  0  0
    2.6790    4.2080    1.1630 C   0  0  0  0  0  0  0  0  0  0  0  0
    2.8390    5.8210   -1.0840 N   0  0  0  0  0  0  0  0  0  0  0  0
    2.6650    3.4930    2.3040 N   0  0  0  0  0  0  0  0  0  0  0  0
    3.4540    5.3600    1.1840 C   0  0  0  0  0  0  0  0  0  0  0  0
    3.5280    6.1790    0.0240 C   0  0  0  0  0  0  0  0  0  0  0  0
    3.6300    4.3230    3.3290 S   0  0  0  0  0  0  0  0  0  0  0  0
    4.0750    5.5730    2.3680 N   0  0  0  0  0  0  0  0  0  0  0  0
    4.3350    7.4250   -0.0340 C   0  0  1  0  0  0  0  0  0  0  0  0
    5.3390    8.0880    1.2760 B   0  0  0  0  0  0  0  0  0  0  0  0
    4.4320    8.2670   -1.1310 C   0  0  0  0  0  0  0  0  0  0  0  0
    5.8460    9.4690    0.3010 C   0  0  0  0  0  0  0  0  0  0  0  0
    3.6850    8.1590   -2.7090 S   0  0  0  0  0  0  0  0  0  0  0  0
    5.2570    9.3750   -0.9370 C   0  0  0  0  0  0  0  0  0  0  0  0
    6.7420   10.5020    0.7590 C   0  0  0  0  0  0  0  0  0  0  0  0
    4.5200    9.6760   -3.1330 C   0  0  0  0  0  0  0  0  0  0  0  0
    5.3020   10.1890   -2.1090 C   0  0  0  0  0  0  0  0  0  0  0  0
    7.0770   11.4900   -0.0490 C   0  0  0  0  0  0  0  0  0  0  0  0
    7.4370   10.5290    2.3640 S   0  0  0  0  0  0  0  0  0  0  0  0
    7.9370   12.3560    0.5890 C   0  0  0  0  0  0  0  0  0  0  0  0
    8.2410   12.0040    1.8840 C   0  0  0  0  0  0  0  0  0  0  0  0
   -1.2240   -0.4510   -0.2350 H   0  0  0  0  0  0  0  0  0  0  0  0
    1.2650   -0.7940   -0.3220 H   0  0  0  0  0  0  0  0  0  0  0  0
    2.7720    1.2120   -0.2040 H   0  0  0  0  0  0  0  0  0  0  0  0
   -0.7890    3.6580    0.0740 H   0  0  0  0  0  0  0  0  0  0  0  0
    1.5650    4.4860   -2.0310 H   0  0  0  0  0  0  0  0  0  0  0  0
    4.3740   10.0890   -4.1230 H   0  0  0  0  0  0  0  0  0  0  0  0
    5.8740   11.1040   -2.2000 H   0  0  0  0  0  0  0  0  0  0  0  0
    8.3030   13.2240    0.0530 H   0  0  0  0  0  0  0  0  0  0  0  0
    8.8860   12.5170    2.5840 H   0  0  0  0  0  0  0  0  0  0  0  0
  1  3  1  0  0  0  0
  2  1  2  0  0  0  0
  2  4  1  0  0  0  0
  3  5  2  0  0  0  0
  4  6  2  0  0  0  0
  5 32  1  0  0  0  0
  6  5  1  0  0  0  0
  6  7  1  0  0  0  0
  7  9  1  0  0  0  0
  8 10  1  0  0  0  0
  8  7  2  0  0  0  0
  9 12  1  0  0  0  0
  9 11  2  0  0  0  0
 10 13  2  0  0  0  0
 11 14  1  0  0  0  0
 12 15  2  0  0  0  0
 13 12  1  0  0  0  0
 15 14  1  0  0  0  0
 16 13  1  6  0  0  0
 16 17  1  0  0  0  0
 18 21  2  0  0  0  0
 18 16  1  0  0  0  0
 19 22  1  0  0  0  0
 19 17  2  0  0  0  0
 20 18  1  0  0  0  0
 21 19  1  0  0  0  0
 22 26  1  0  0  0  0
 23 20  1  0  0  0  0
 23 24  2  0  0  0  0
 24 21  1  0  0  0  0
 25 27  1  0  0  0  0
 25 22  2  0  0  0  0
 27 28  2  0  0  0  0
 28 26  1  0  0  0  0
 28 37  1  0  0  0  0
 29  1  1  0  0  0  0
 30  2  1  0  0  0  0
 31  4  1  0  0  0  0
 33  8  1  0  0  0  0
 34 23  1  0  0  0  0
 35 24  1  0  0  0  0
 36 27  1  0  0  0  0
M  END
$$$$
scan_sander_basal_param/min_pdbs/min_pdb_C271_120.pdb
 OpenBabel10021702243D

 37 42  0  0  1  0  0  0  0  0999 V2000
   -0.5490    0.4010   -0.2420 C   0  0  0  0  0  0  0  0  0  0  0  0
    0.8220    0.1980   -0.0120 C   0  0  0  0  0  0  0  0  0  0  0  0
   -1.0900    1.6270   -0.3840 N   0  0  0  0  0  0  0  0  0  0  0  0
    1.6680    1.3140    0.0740 C   0  0  0  0  0  0  0  0  0  0  0  0
   -0.2740    2.6980   -0.2990 C   0  0  0  0  0  0  0  0  0  0  0  0
    1.1200    2.6090   -0.0710 C   0  0  0  0  0  0  0  0  0  0  0  0
    1.9720    3.8310    0.0000 C   0  0  0  0  0  0  0  0  0  0  0  0
    2.0590    4.7240   -1.0880 C   0  0  0  0  0  0  0  0  0  0  0  0
    2.7270    4.1770    1.1400 C   0  0  0  0  0  0  0  0  0  0  0  0
    2.8090    5.8430   -1.0730 N   0  0  0  0  0  0  0  0  0  0  0  0
    2.7520    3.4410    2.2680 N   0  0  0  0  0  0  0  0  0  0  0  0
    3.5010    5.3310    1.1610 C   0  0  0  0  0  0  0  0  0  0  0  0
    3.5350    6.1770    0.0190 C   0  0  0  0  0  0  0  0  0  0  0  0
    3.7480    4.2520    3.2790 S   0  0  0  0  0  0  0  0  0  0  0  0
    4.1600    5.5200    2.3290 N   0  0  0  0  0  0  0  0  0  0  0  0
    4.3390    7.4250   -0.0380 C   0  0  1  0  0  0  0  0  0  0  0  0
    5.3860    8.0600    1.2520 B   0  0  0  0  0  0  0  0  0  0  0  0
    4.3980    8.2920   -1.1190 C   0  0  0  0  0  0  0  0  0  0  0  0
    5.8590    9.4640    0.2920 C   0  0  0  0  0  0  0  0  0  0  0  0
    3.5970    8.2180   -2.6730 S   0  0  0  0  0  0  0  0  0  0  0  0
    5.2270    9.3960   -0.9270 C   0  0  0  0  0  0  0  0  0  0  0  0
    6.7680   10.4870    0.7420 C   0  0  0  0  0  0  0  0  0  0  0  0
    4.4160    9.7460   -3.0900 C   0  0  0  0  0  0  0  0  0  0  0  0
    5.2320   10.2370   -2.0810 C   0  0  0  0  0  0  0  0  0  0  0  0
    7.0740   11.4950   -0.0540 C   0  0  0  0  0  0  0  0  0  0  0  0
    7.5170   10.4800    2.3230 S   0  0  0  0  0  0  0  0  0  0  0  0
    7.9540   12.3480    0.5740 C   0  0  0  0  0  0  0  0  0  0  0  0
    8.3030   11.9670    1.8490 C   0  0  0  0  0  0  0  0  0  0  0  0
   -1.2350   -0.4420   -0.3140 H   0  0  0  0  0  0  0  0  0  0  0  0
    1.2170   -0.8080    0.0980 H   0  0  0  0  0  0  0  0  0  0  0  0
    2.7330    1.1870    0.2530 H   0  0  0  0  0  0  0  0  0  0  0  0
   -0.7500    3.6710   -0.4170 H   0  0  0  0  0  0  0  0  0  0  0  0
    1.5070    4.5290   -2.0070 H   0  0  0  0  0  0  0  0  0  0  0  0
    4.2360   10.1810   -4.0650 H   0  0  0  0  0  0  0  0  0  0  0  0
    5.8000   11.1540   -2.1710 H   0  0  0  0  0  0  0  0  0  0  0  0
    8.3010   13.2280    0.0460 H   0  0  0  0  0  0  0  0  0  0  0  0
    8.9700   12.4650    2.5390 H   0  0  0  0  0  0  0  0  0  0  0  0
  1  2  2  0  0  0  0
  2  4  1  0  0  0  0
  2 30  1  0  0  0  0
  3  5  2  0  0  0  0
  3  1  1  0  0  0  0
  4 31  1  0  0  0  0
  5  6  1  0  0  0  0
  6  7  1  0  0  0  0
  6  4  2  0  0  0  0
  7  9  1  0  0  0  0
  8 10  1  0  0  0  0
  8  7  2  0  0  0  0
  9 12  1  0  0  0  0
  9 11  2  0  0  0  0
 10 13  2  0  0  0  0
 11 14  1  0  0  0  0
 12 15  2  0  0  0  0
 13 12  1  0  0  0  0
 15 14  1  0  0  0  0
 16 13  1  6  0  0  0
 16 17  1  0  0  0  0
 18 21  2  0  0  0  0
 18 16  1  0  0  0  0
 19 22  1  0  0  0  0
 19 17  2  0  0  0  0
 20 18  1  0  0  0  0
 21 19  1  0  0  0  0
 22 26  1  0  0  0  0
 23 20  1  0  0  0  0
 23 24  2  0  0  0  0
 24 21  1  0  0  0  0
 25 27  1  0  0  0  0
 25 22  2  0  0  0  0
 27 28  2  0  0  0  0
 28 26  1  0  0  0  0
 28 37  1  0  0  0  0
 29  1  1  0  0  0  0
 32  5  1  0  0  0  0
 33  8  1  0  0  0  0
 34 23  1  0  0  0  0
 35 24  1  0  0  0  0
 36 27  1  0  0  0  0
M  END
$$$$
scan_sander_basal_param/min_pdbs/min_pdb_C271_135.pdb
 OpenBabel10021702243D

 37 42  0  0  1  0  0  0  0  0999 V2000
   -0.5550    0.3990   -0.3120 C   0  0  0  0  0  0  0  0  0  0  0  0
    0.7420    0.2090    0.1920 C   0  0  0  0  0  0  0  0  0  0  0  0
   -1.0170    1.6050   -0.6920 N   0  0  0  0  0  0  0  0  0  0  0  0
    1.5950    1.3190    0.3090 C   0  0  0  0  0  0  0  0  0  0  0  0
   -0.1960    2.6690   -0.5780 C   0  0  0  0  0  0  0  0  0  0  0  0
    1.1290    2.5970   -0.0800 C   0  0  0  0  0  0  0  0  0  0  0  0
    1.9890    3.8190    0.0040 C   0  0  0  0  0  0  0  0  0  0  0  0
    2.0380    4.7410   -1.0630 C   0  0  0  0  0  0  0  0  0  0  0  0
    2.7790    4.1480    1.1290 C   0  0  0  0  0  0  0  0  0  0  0  0
    2.7850    5.8610   -1.0510 N   0  0  0  0  0  0  0  0  0  0  0  0
    2.8370    3.4020    2.2500 N   0  0  0  0  0  0  0  0  0  0  0  0
    3.5500    5.3060    1.1480 C   0  0  0  0  0  0  0  0  0  0  0  0
    3.5460    6.1740    0.0230 C   0  0  0  0  0  0  0  0  0  0  0  0
    3.8590    4.2010    3.2430 S   0  0  0  0  0  0  0  0  0  0  0  0
    4.2410    5.4810    2.2990 N   0  0  0  0  0  0  0  0  0  0  0  0
    4.3460    7.4250   -0.0360 C   0  0  1  0  0  0  0  0  0  0  0  0
    5.4340    8.0380    1.2310 B   0  0  0  0  0  0  0  0  0  0  0  0
    4.3680    8.3130   -1.1010 C   0  0  0  0  0  0  0  0  0  0  0  0
    5.8720    9.4610    0.2830 C   0  0  0  0  0  0  0  0  0  0  0  0
    3.5170    8.2680   -2.6290 S   0  0  0  0  0  0  0  0  0  0  0  0
    5.2010    9.4160   -0.9160 C   0  0  0  0  0  0  0  0  0  0  0  0
    6.7940   10.4780    0.7230 C   0  0  0  0  0  0  0  0  0  0  0  0
    4.3190    9.8050   -3.0440 C   0  0  0  0  0  0  0  0  0  0  0  0
    5.1660   10.2780   -2.0530 C   0  0  0  0  0  0  0  0  0  0  0  0
    7.0730   11.5010   -0.0630 C   0  0  0  0  0  0  0  0  0  0  0  0
    7.5950   10.4420    2.2780 S   0  0  0  0  0  0  0  0  0  0  0  0
    7.9710   12.3440    0.5520 C   0  0  0  0  0  0  0  0  0  0  0  0
    8.3620   11.9390    1.8080 C   0  0  0  0  0  0  0  0  0  0  0  0
   -1.2430   -0.4390   -0.4170 H   0  0  0  0  0  0  0  0  0  0  0  0
    1.0770   -0.7810    0.4850 H   0  0  0  0  0  0  0  0  0  0  0  0
    2.6050    1.1930    0.6890 H   0  0  0  0  0  0  0  0  0  0  0  0
   -0.6130    3.6250   -0.8930 H   0  0  0  0  0  0  0  0  0  0  0  0
    1.4600    4.5670   -1.9710 H   0  0  0  0  0  0  0  0  0  0  0  0
    4.1060   10.2580   -4.0030 H   0  0  0  0  0  0  0  0  0  0  0  0
    5.7300   11.1990   -2.1430 H   0  0  0  0  0  0  0  0  0  0  0  0
    8.2990   13.2350    0.0300 H   0  0  0  0  0  0  0  0  0  0  0  0
    9.0510   12.4250    2.4850 H   0  0  0  0  0  0  0  0  0  0  0  0
  1  2  2  0  0  0  0
  2  4  1  0  0  0  0
  2 30  1  0  0  0  0
  3  5  2  0  0  0  0
  3  1  1  0  0  0  0
  4 31  1  0  0  0  0
  5  6  1  0  0  0  0
  6  7  1  0  0  0  0
  6  4  2  0  0  0  0
  7  9  1  0  0  0  0
  8 10  1  0  0  0  0
  8  7  2  0  0  0  0
  9 12  1  0  0  0  0
  9 11  2  0  0  0  0
 10 13  2  0  0  0  0
 11 14  1  0  0  0  0
 12 15  2  0  0  0  0
 13 12  1  0  0  0  0
 15 14  1  0  0  0  0
 16 13  1  6  0  0  0
 16 17  1  0  0  0  0
 18 21  2  0  0  0  0
 18 16  1  0  0  0  0
 19 22  1  0  0  0  0
 19 17  2  0  0  0  0
 20 18  1  0  0  0  0
 21 19  1  0  0  0  0
 22 26  1  0  0  0  0
 23 20  1  0  0  0  0
 23 24  2  0  0  0  0
 24 21  1  0  0  0  0
 25 27  1  0  0  0  0
 25 22  2  0  0  0  0
 27 28  2  0  0  0  0
 28 26  1  0  0  0  0
 28 37  1  0  0  0  0
 29  1  1  0  0  0  0
 32  5  1  0  0  0  0
 33  8  1  0  0  0  0
 34 23  1  0  0  0  0
 35 24  1  0  0  0  0
 36 27  1  0  0  0  0
M  END
$$$$
scan_sander_basal_param/min_pdbs/min_pdb_C271_150.pdb
 OpenBabel10021702243D

 37 42  0  0  1  0  0  0  0  0999 V2000
   -0.5570    0.3850   -0.3920 C   0  0  0  0  0  0  0  0  0  0  0  0
    0.6140    0.2360    0.3650 C   0  0  0  0  0  0  0  0  0  0  0  0
   -0.8920    1.5460   -0.9840 N   0  0  0  0  0  0  0  0  0  0  0  0
    1.4710    1.3380    0.5190 C   0  0  0  0  0  0  0  0  0  0  0  0
   -0.0670    2.6010   -0.8360 C   0  0  0  0  0  0  0  0  0  0  0  0
    1.1400    2.5780   -0.0870 C   0  0  0  0  0  0  0  0  0  0  0  0
    2.0070    3.8040    0.0180 C   0  0  0  0  0  0  0  0  0  0  0  0
    2.0220    4.7580   -1.0270 C   0  0  0  0  0  0  0  0  0  0  0  0
    2.8330    4.1230    1.1260 C   0  0  0  0  0  0  0  0  0  0  0  0
    2.7670    5.8790   -1.0180 N   0  0  0  0  0  0  0  0  0  0  0  0
    2.9220    3.3770    2.2460 N   0  0  0  0  0  0  0  0  0  0  0  0
    3.5990    5.2860    1.1420 C   0  0  0  0  0  0  0  0  0  0  0  0
    3.5600    6.1740    0.0350 C   0  0  0  0  0  0  0  0  0  0  0  0
    3.9690    4.1660    3.2190 S   0  0  0  0  0  0  0  0  0  0  0  0
    4.3210    5.4530    2.2750 N   0  0  0  0  0  0  0  0  0  0  0  0
    4.3550    7.4280   -0.0290 C   0  0  1  0  0  0  0  0  0  0  0  0
    5.4830    8.0230    1.2120 B   0  0  0  0  0  0  0  0  0  0  0  0
    4.3410    8.3340   -1.0780 C   0  0  0  0  0  0  0  0  0  0  0  0
    5.8880    9.4630    0.2750 C   0  0  0  0  0  0  0  0  0  0  0  0
    3.4400    8.3130   -2.5780 S   0  0  0  0  0  0  0  0  0  0  0  0
    5.1780    9.4360   -0.9020 C   0  0  0  0  0  0  0  0  0  0  0  0
    6.8210   10.4740    0.7020 C   0  0  0  0  0  0  0  0  0  0  0  0
    4.2260    9.8590   -2.9930 C   0  0  0  0  0  0  0  0  0  0  0  0
    5.1040   10.3170   -2.0220 C   0  0  0  0  0  0  0  0  0  0  0  0
    7.0720   11.5110   -0.0750 C   0  0  0  0  0  0  0  0  0  0  0  0
    7.6730   10.4140    2.2290 S   0  0  0  0  0  0  0  0  0  0  0  0
    7.9890   12.3450    0.5240 C   0  0  0  0  0  0  0  0  0  0  0  0
    8.4210   11.9200    1.7590 C   0  0  0  0  0  0  0  0  0  0  0  0
   -1.2440   -0.4490   -0.5330 H   0  0  0  0  0  0  0  0  0  0  0  0
    0.8560   -0.7200    0.8200 H   0  0  0  0  0  0  0  0  0  0  0  0
    2.3920    1.2180    1.0790 H   0  0  0  0  0  0  0  0  0  0  0  0
   -0.3970    3.5170   -1.3230 H   0  0  0  0  0  0  0  0  0  0  0  0
    1.4290    4.6050   -1.9280 H   0  0  0  0  0  0  0  0  0  0  0  0
    3.9810   10.3270   -3.9370 H   0  0  0  0  0  0  0  0  0  0  0  0
    5.6630   11.2400   -2.1150 H   0  0  0  0  0  0  0  0  0  0  0  0
    8.2980   13.2450    0.0070 H   0  0  0  0  0  0  0  0  0  0  0  0
    9.1310   12.3970    2.4220 H   0  0  0  0  0  0  0  0  0  0  0  0
  1  2  2  0  0  0  0
  2  4  1  0  0  0  0
  2 30  1  0  0  0  0
  3  5  2  0  0  0  0
  3  1  1  0  0  0  0
  4 31  1  0  0  0  0
  5  6  1  0  0  0  0
  6  7  1  0  0  0  0
  6  4  2  0  0  0  0
  7  9  1  0  0  0  0
  8 10  1  0  0  0  0
  8  7  2  0  0  0  0
  9 12  1  0  0  0  0
  9 11  2  0  0  0  0
 10 13  2  0  0  0  0
 11 14  1  0  0  0  0
 12 15  2  0  0  0  0
 13 12  1  0  0  0  0
 15 14  1  0  0  0  0
 16 13  1  6  0  0  0
 16 17  1  0  0  0  0
 18 21  2  0  0  0  0
 18 16  1  0  0  0  0
 19 22  1  0  0  0  0
 19 17  2  0  0  0  0
 20 18  1  0  0  0  0
 21 19  1  0  0  0  0
 22 26  1  0  0  0  0
 23 20  1  0  0  0  0
 23 24  2  0  0  0  0
 24 21  1  0  0  0  0
 25 27  1  0  0  0  0
 25 22  2  0  0  0  0
 27 28  2  0  0  0  0
 28 26  1  0  0  0  0
 28 37  1  0  0  0  0
 29  1  1  0  0  0  0
 32  5  1  0  0  0  0
 33  8  1  0  0  0  0
 34 23  1  0  0  0  0
 35 24  1  0  0  0  0
 36 27  1  0  0  0  0
M  END
$$$$
scan_sander_basal_param/min_pdbs/min_pdb_C271_165.pdb
 OpenBabel10021702243D

 37 42  0  0  1  0  0  0  0  0999 V2000
   -0.5560    0.3580   -0.4610 C   0  0  0  0  0  0  0  0  0  0  0  0
    0.4480    0.2850    0.5130 C   0  0  0  0  0  0  0  0  0  0  0  0
   -0.7280    1.4450   -1.2320 N   0  0  0  0  0  0  0  0  0  0  0  0
    1.3030    1.3830    0.6980 C   0  0  0  0  0  0  0  0  0  0  0  0
    0.0970    2.4960   -1.0530 C   0  0  0  0  0  0  0  0  0  0  0  0
    1.1500    2.5540   -0.0940 C   0  0  0  0  0  0  0  0  0  0  0  0
    2.0240    3.7890    0.0280 C   0  0  0  0  0  0  0  0  0  0  0  0
    2.0150    4.7720   -0.9940 C   0  0  0  0  0  0  0  0  0  0  0  0
    2.8920    4.0960    1.1150 C   0  0  0  0  0  0  0  0  0  0  0  0
    2.7580    5.8940   -0.9870 N   0  0  0  0  0  0  0  0  0  0  0  0
    3.0280    3.3430    2.2260 N   0  0  0  0  0  0  0  0  0  0  0  0
    3.6570    5.2630    1.1280 C   0  0  0  0  0  0  0  0  0  0  0  0
    3.5820    6.1730    0.0430 C   0  0  0  0  0  0  0  0  0  0  0  0
    4.1060    4.1170    3.1750 S   0  0  0  0  0  0  0  0  0  0  0  0
    4.4170    5.4170    2.2380 N   0  0  0  0  0  0  0  0  0  0  0  0
    4.3700    7.4310   -0.0230 C   0  0  1  0  0  0  0  0  0  0  0  0
    5.5360    8.0090    1.1910 B   0  0  0  0  0  0  0  0  0  0  0  0
    4.3180    8.3560   -1.0550 C   0  0  0  0  0  0  0  0  0  0  0  0
    5.9040    9.4670    0.2680 C   0  0  0  0  0  0  0  0  0  0  0  0
    3.3700    8.3580   -2.5250 S   0  0  0  0  0  0  0  0  0  0  0  0
    5.1560    9.4580   -0.8860 C   0  0  0  0  0  0  0  0  0  0  0  0
    6.8460   10.4750    0.6820 C   0  0  0  0  0  0  0  0  0  0  0  0
    4.1350    9.9150   -2.9370 C   0  0  0  0  0  0  0  0  0  0  0  0
    5.0430   10.3600   -1.9870 C   0  0  0  0  0  0  0  0  0  0  0  0
    7.0680   11.5270   -0.0830 C   0  0  0  0  0  0  0  0  0  0  0  0
    7.7470   10.3920    2.1800 S   0  0  0  0  0  0  0  0  0  0  0  0
    7.9990   12.3550    0.5010 C   0  0  0  0  0  0  0  0  0  0  0  0
    8.4730   11.9100    1.7140 C   0  0  0  0  0  0  0  0  0  0  0  0
   -1.2360   -0.4750   -0.6330 H   0  0  0  0  0  0  0  0  0  0  0  0
    0.5650   -0.6140    1.1110 H   0  0  0  0  0  0  0  0  0  0  0  0
    2.0920    1.2870    1.4320 H   0  0  0  0  0  0  0  0  0  0  0  0
   -0.1250    3.3430   -1.6960 H   0  0  0  0  0  0  0  0  0  0  0  0
    1.4120    4.6510   -1.8910 H   0  0  0  0  0  0  0  0  0  0  0  0
    3.8580   10.3990   -3.8640 H   0  0  0  0  0  0  0  0  0  0  0  0
    5.5940   11.2870   -2.0810 H   0  0  0  0  0  0  0  0  0  0  0  0
    8.2880   13.2660   -0.0090 H   0  0  0  0  0  0  0  0  0  0  0  0
    9.2020   12.3780    2.3620 H   0  0  0  0  0  0  0  0  0  0  0  0
  1  2  2  0  0  0  0
  2  4  1  0  0  0  0
  2 30  1  0  0  0  0
  3  5  2  0  0  0  0
  3  1  1  0  0  0  0
  4 31  1  0  0  0  0
  5  6  1  0  0  0  0
  6  7  1  0  0  0  0
  6  4  2  0  0  0  0
  7  9  1  0  0  0  0
  8 10  1  0  0  0  0
  8  7  2  0  0  0  0
  9 12  1  0  0  0  0
  9 11  2  0  0  0  0
 10 13  2  0  0  0  0
 11 14  1  0  0  0  0
 12 15  2  0  0  0  0
 13 12  1  0  0  0  0
 15 14  1  0  0  0  0
 16 13  1  6  0  0  0
 16 17  1  0  0  0  0
 18 21  2  0  0  0  0
 18 16  1  0  0  0  0
 19 22  1  0  0  0  0
 19 17  2  0  0  0  0
 20 18  1  0  0  0  0
 21 19  1  0  0  0  0
 22 26  1  0  0  0  0
 23 20  1  0  0  0  0
 23 24  2  0  0  0  0
 24 21  1  0  0  0  0
 25 27  1  0  0  0  0
 25 22  2  0  0  0  0
 27 28  2  0  0  0  0
 28 26  1  0  0  0  0
 28 37  1  0  0  0  0
 29  1  1  0  0  0  0
 32  5  1  0  0  0  0
 33  8  1  0  0  0  0
 34 23  1  0  0  0  0
 35 24  1  0  0  0  0
 36 27  1  0  0  0  0
M  END
$$$$
scan_sander_basal_param/min_pdbs/min_pdb_C271_180.pdb
 OpenBabel10021702243D

 37 42  0  0  1  0  0  0  0  0999 V2000
   -0.5400    0.3320   -0.5010 C   0  0  0  0  0  0  0  0  0  0  0  0
    0.2610    0.3750    0.6450 C   0  0  0  0  0  0  0  0  0  0  0  0
   -0.5250    1.3100   -1.4190 N   0  0  0  0  0  0  0  0  0  0  0  0
    1.1100    1.4750    0.8470 C   0  0  0  0  0  0  0  0  0  0  0  0
    0.2920    2.3650   -1.2220 C   0  0  0  0  0  0  0  0  0  0  0  0
    1.1590    2.5380   -0.1010 C   0  0  0  0  0  0  0  0  0  0  0  0
    2.0450    3.7740    0.0240 C   0  0  0  0  0  0  0  0  0  0  0  0
    2.0170    4.7770   -0.9810 C   0  0  0  0  0  0  0  0  0  0  0  0
    2.9510    4.0640    1.0890 C   0  0  0  0  0  0  0  0  0  0  0  0
    2.7540    5.9020   -0.9710 N   0  0  0  0  0  0  0  0  0  0  0  0
    3.1620    3.2750    2.1610 N   0  0  0  0  0  0  0  0  0  0  0  0
    3.7160    5.2320    1.1000 C   0  0  0  0  0  0  0  0  0  0  0  0
    3.6050    6.1650    0.0390 C   0  0  0  0  0  0  0  0  0  0  0  0
    4.2730    4.0300    3.0860 S   0  0  0  0  0  0  0  0  0  0  0  0
    4.5250    5.3610    2.1780 N   0  0  0  0  0  0  0  0  0  0  0  0
    4.3850    7.4300   -0.0240 C   0  0  1  0  0  0  0  0  0  0  0  0
    5.5820    7.9900    1.1670 B   0  0  0  0  0  0  0  0  0  0  0  0
    4.2960    8.3750   -1.0350 C   0  0  0  0  0  0  0  0  0  0  0  0
    5.9140    9.4700    0.2630 C   0  0  0  0  0  0  0  0  0  0  0  0
    3.3050    8.4010   -2.4760 S   0  0  0  0  0  0  0  0  0  0  0  0
    5.1330    9.4790   -0.8680 C   0  0  0  0  0  0  0  0  0  0  0  0
    6.8630   10.4750    0.6700 C   0  0  0  0  0  0  0  0  0  0  0  0
    4.0490    9.9700   -2.8780 C   0  0  0  0  0  0  0  0  0  0  0  0
    4.9810   10.4020   -1.9460 C   0  0  0  0  0  0  0  0  0  0  0  0
    7.0550   11.5440   -0.0800 C   0  0  0  0  0  0  0  0  0  0  0  0
    7.8080   10.3660    2.1380 S   0  0  0  0  0  0  0  0  0  0  0  0
    7.9990   12.3650    0.4930 C   0  0  0  0  0  0  0  0  0  0  0  0
    8.5120   11.8990    1.6820 C   0  0  0  0  0  0  0  0  0  0  0  0
   -1.2110   -0.5060   -0.6910 H   0  0  0  0  0  0  0  0  0  0  0  0
    0.2240   -0.4340    1.3680 H   0  0  0  0  0  0  0  0  0  0  0  0
    1.7100    1.4690    1.7430 H   0  0  0  0  0  0  0  0  0  0  0  0
    0.2340    3.1020   -2.0160 H   0  0  0  0  0  0  0  0  0  0  0  0
    1.3770    4.6970   -1.8530 H   0  0  0  0  0  0  0  0  0  0  0  0
    3.7410   10.4720   -3.7860 H   0  0  0  0  0  0  0  0  0  0  0  0
    5.5240   11.3340   -2.0380 H   0  0  0  0  0  0  0  0  0  0  0  0
    8.2670   13.2880   -0.0070 H   0  0  0  0  0  0  0  0  0  0  0  0
    9.2570   12.3580    2.3170 H   0  0  0  0  0  0  0  0  0  0  0  0
  1  2  2  0  0  0  0
  2  4  1  0  0  0  0
  2 30  1  0  0  0  0
  3  5  2  0  0  0  0
  3  1  1  0  0  0  0
  4 31  1  0  0  0  0
  5  6  1  0  0  0  0
  6  7  1  0  0  0  0
  6  4  2  0  0  0  0
  7  9  1  0  0  0  0
  8 10  1  0  0  0  0
  8  7  2  0  0  0  0
  9 12  1  0  0  0  0
  9 11  2  0  0  0  0
 10 13  2  0  0  0  0
 11 14  1  0  0  0  0
 12 15  2  0  0  0  0
 13 12  1  0  0  0  0
 15 14  1  0  0  0  0
 16 13  1  6  0  0  0
 16 17  1  0  0  0  0
 18 21  2  0  0  0  0
 18 16  1  0  0  0  0
 19 22  1  0  0  0  0
 19 17  2  0  0  0  0
 20 18  1  0  0  0  0
 21 19  1  0  0  0  0
 22 26  1  0  0  0  0
 23 20  1  0  0  0  0
 23 24  2  0  0  0  0
 24 21  1  0  0  0  0
 25 27  1  0  0  0  0
 25 22  2  0  0  0  0
 27 28  2  0  0  0  0
 28 26  1  0  0  0  0
 28 37  1  0  0  0  0
 29  1  1  0  0  0  0
 32  5  1  0  0  0  0
 33  8  1  0  0  0  0
 34 23  1  0  0  0  0
 35 24  1  0  0  0  0
 36 27  1  0  0  0  0
M  END
$$$$
scan_sander_basal_param/min_pdbs/min_pdb_C271_195.pdb
 OpenBabel10021702243D

 37 42  0  0  1  0  0  0  0  0999 V2000
   -0.4910    0.3160   -0.5040 C   0  0  0  0  0  0  0  0  0  0  0  0
    0.0940    0.5130    0.7530 C   0  0  0  0  0  0  0  0  0  0  0  0
   -0.2850    1.1580   -1.5300 N   0  0  0  0  0  0  0  0  0  0  0  0
    0.9300    1.6240    0.9520 C   0  0  0  0  0  0  0  0  0  0  0  0
    0.5150    2.2250   -1.3350 C   0  0  0  0  0  0  0  0  0  0  0  0
    1.1770    2.5360   -0.1120 C   0  0  0  0  0  0  0  0  0  0  0  0
    2.0610    3.7650    0.0040 C   0  0  0  0  0  0  0  0  0  0  0  0
    2.0030    4.7800   -0.9860 C   0  0  0  0  0  0  0  0  0  0  0  0
    2.9990    4.0260    1.0430 C   0  0  0  0  0  0  0  0  0  0  0  0
    2.7350    5.9090   -0.9710 N   0  0  0  0  0  0  0  0  0  0  0  0
    3.2700    3.1860    2.0630 N   0  0  0  0  0  0  0  0  0  0  0  0
    3.7640    5.1930    1.0560 C   0  0  0  0  0  0  0  0  0  0  0  0
    3.6160    6.1510    0.0200 C   0  0  0  0  0  0  0  0  0  0  0  0
    4.4170    3.9160    2.9660 S   0  0  0  0  0  0  0  0  0  0  0  0
    4.6200    5.2860    2.1010 N   0  0  0  0  0  0  0  0  0  0  0  0
    4.3880    7.4200   -0.0340 C   0  0  1  0  0  0  0  0  0  0  0  0
    5.6180    7.9560    1.1340 B   0  0  0  0  0  0  0  0  0  0  0  0
    4.2650    8.3900   -1.0180 C   0  0  0  0  0  0  0  0  0  0  0  0
    5.9160    9.4590    0.2580 C   0  0  0  0  0  0  0  0  0  0  0  0
    3.2310    8.4470   -2.4280 S   0  0  0  0  0  0  0  0  0  0  0  0
    5.1010    9.4930   -0.8480 C   0  0  0  0  0  0  0  0  0  0  0  0
    6.8730   10.4590    0.6620 C   0  0  0  0  0  0  0  0  0  0  0  0
    3.9560   10.0300   -2.8120 C   0  0  0  0  0  0  0  0  0  0  0  0
    4.9140   10.4420   -1.8980 C   0  0  0  0  0  0  0  0  0  0  0  0
    7.0390   11.5470   -0.0670 C   0  0  0  0  0  0  0  0  0  0  0  0
    7.8620   10.3180    2.0980 S   0  0  0  0  0  0  0  0  0  0  0  0
    7.9960   12.3580    0.4990 C   0  0  0  0  0  0  0  0  0  0  0  0
    8.5460   11.8640    1.6600 C   0  0  0  0  0  0  0  0  0  0  0  0
   -1.1460   -0.5340   -0.6930 H   0  0  0  0  0  0  0  0  0  0  0  0
   -0.1030   -0.1820    1.5640 H   0  0  0  0  0  0  0  0  0  0  0  0
    1.3400    1.7740    1.9410 H   0  0  0  0  0  0  0  0  0  0  0  0
    0.6510    2.8400   -2.2200 H   0  0  0  0  0  0  0  0  0  0  0  0
    1.3130    4.7150   -1.8220 H   0  0  0  0  0  0  0  0  0  0  0  0
    3.6190   10.5520   -3.6980 H   0  0  0  0  0  0  0  0  0  0  0  0
    5.4500   11.3790   -1.9820 H   0  0  0  0  0  0  0  0  0  0  0  0
    8.2450   13.2950    0.0140 H   0  0  0  0  0  0  0  0  0  0  0  0
    9.3080   12.3110    2.2830 H   0  0  0  0  0  0  0  0  0  0  0  0
  1  2  2  0  0  0  0
  2  4  1  0  0  0  0
  2 30  1  0  0  0  0
  3  5  2  0  0  0  0
  3  1  1  0  0  0  0
  4 31  1  0  0  0  0
  5  6  1  0  0  0  0
  6  7  1  0  0  0  0
  6  4  2  0  0  0  0
  7  9  1  0  0  0  0
  8 10  1  0  0  0  0
  8  7  2  0  0  0  0
  9 12  1  0  0  0  0
  9 11  2  0  0  0  0
 10 13  2  0  0  0  0
 11 14  1  0  0  0  0
 12 15  2  0  0  0  0
 13 12  1  0  0  0  0
 15 14  1  0  0  0  0
 16 13  1  6  0  0  0
 16 17  1  0  0  0  0
 18 21  2  0  0  0  0
 18 16  1  0  0  0  0
 19 22  1  0  0  0  0
 19 17  2  0  0  0  0
 20 18  1  0  0  0  0
 21 19  1  0  0  0  0
 22 26  1  0  0  0  0
 23 20  1  0  0  0  0
 23 24  2  0  0  0  0
 24 21  1  0  0  0  0
 25 27  1  0  0  0  0
 25 22  2  0  0  0  0
 27 28  2  0  0  0  0
 28 26  1  0  0  0  0
 28 37  1  0  0  0  0
 29  1  1  0  0  0  0
 32  5  1  0  0  0  0
 33  8  1  0  0  0  0
 34 23  1  0  0  0  0
 35 24  1  0  0  0  0
 36 27  1  0  0  0  0
M  END
$$$$
scan_sander_basal_param/min_pdbs/min_pdb_C271_210.pdb
 OpenBabel10021702243D

 37 42  0  0  1  0  0  0  0  0999 V2000
   -0.4160    0.2940   -0.4820 C   0  0  0  0  0  0  0  0  0  0  0  0
   -0.0470    0.6640    0.8190 C   0  0  0  0  0  0  0  0  0  0  0  0
   -0.0240    0.9820   -1.5690 N   0  0  0  0  0  0  0  0  0  0  0  0
    0.7680    1.7940    1.0010 C   0  0  0  0  0  0  0  0  0  0  0  0
    0.7570    2.0670   -1.3910 C   0  0  0  0  0  0  0  0  0  0  0  0
    1.2040    2.5360   -0.1260 C   0  0  0  0  0  0  0  0  0  0  0  0
    2.0690    3.7640   -0.0210 C   0  0  0  0  0  0  0  0  0  0  0  0
    1.9690    4.7910   -0.9890 C   0  0  0  0  0  0  0  0  0  0  0  0
    3.0350    3.9930    0.9920 C   0  0  0  0  0  0  0  0  0  0  0  0
    2.7000    5.9210   -0.9710 N   0  0  0  0  0  0  0  0  0  0  0  0
    3.3250    3.1180    1.9760 N   0  0  0  0  0  0  0  0  0  0  0  0
    3.7980    5.1580    1.0090 C   0  0  0  0  0  0  0  0  0  0  0  0
    3.6130    6.1400   -0.0000 C   0  0  0  0  0  0  0  0  0  0  0  0
    4.5030    3.8230    2.8600 S   0  0  0  0  0  0  0  0  0  0  0  0
    4.6850    5.2190    2.0300 N   0  0  0  0  0  0  0  0  0  0  0  0
    4.3810    7.4120   -0.0460 C   0  0  1  0  0  0  0  0  0  0  0  0
    5.6460    7.9190    1.0970 B   0  0  0  0  0  0  0  0  0  0  0  0
    4.2270    8.4070   -1.0000 C   0  0  0  0  0  0  0  0  0  0  0  0
    5.9160    9.4450    0.2520 C   0  0  0  0  0  0  0  0  0  0  0  0
    3.1490    8.4980   -2.3750 S   0  0  0  0  0  0  0  0  0  0  0  0
    5.0670    9.5060   -0.8270 C   0  0  0  0  0  0  0  0  0  0  0  0
    6.8840   10.4350    0.6520 C   0  0  0  0  0  0  0  0  0  0  0  0
    3.8600   10.0920   -2.7400 C   0  0  0  0  0  0  0  0  0  0  0  0
    4.8460   10.4820   -1.8460 C   0  0  0  0  0  0  0  0  0  0  0  0
    7.0250   11.5420   -0.0530 C   0  0  0  0  0  0  0  0  0  0  0  0
    7.9170   10.2580    2.0520 S   0  0  0  0  0  0  0  0  0  0  0  0
    7.9990   12.3400    0.5040 C   0  0  0  0  0  0  0  0  0  0  0  0
    8.5850   11.8170    1.6340 C   0  0  0  0  0  0  0  0  0  0  0  0
   -1.0480   -0.5760   -0.6600 H   0  0  0  0  0  0  0  0  0  0  0  0
   -0.3920    0.0880    1.6730 H   0  0  0  0  0  0  0  0  0  0  0  0
    1.0300    2.1000    2.0080 H   0  0  0  0  0  0  0  0  0  0  0  0
    1.0560    2.5750   -2.3060 H   0  0  0  0  0  0  0  0  0  0  0  0
    1.2510    4.7190   -1.8040 H   0  0  0  0  0  0  0  0  0  0  0  0
    3.4960   10.6370   -3.6010 H   0  0  0  0  0  0  0  0  0  0  0  0
    5.3790   11.4220   -1.9220 H   0  0  0  0  0  0  0  0  0  0  0  0
    8.2320   13.2890    0.0370 H   0  0  0  0  0  0  0  0  0  0  0  0
    9.3660   12.2490    2.2450 H   0  0  0  0  0  0  0  0  0  0  0  0
  1  2  2  0  0  0  0
  2  4  1  0  0  0  0
  2 30  1  0  0  0  0
  3  5  2  0  0  0  0
  3  1  1  0  0  0  0
  4 31  1  0  0  0  0
  5  6  1  0  0  0  0
  6  7  1  0  0  0  0
  6  4  2  0  0  0  0
  7  9  1  0  0  0  0
  8 10  1  0  0  0  0
  8  7  2  0  0  0  0
  9 12  1  0  0  0  0
  9 11  2  0  0  0  0
 10 13  2  0  0  0  0
 11 14  1  0  0  0  0
 12 15  2  0  0  0  0
 13 12  1  0  0  0  0
 15 14  1  0  0  0  0
 16 13  1  6  0  0  0
 16 17  1  0  0  0  0
 18 21  2  0  0  0  0
 18 16  1  0  0  0  0
 19 22  1  0  0  0  0
 19 17  2  0  0  0  0
 20 18  1  0  0  0  0
 21 19  1  0  0  0  0
 22 26  1  0  0  0  0
 23 20  1  0  0  0  0
 23 24  2  0  0  0  0
 24 21  1  0  0  0  0
 25 27  1  0  0  0  0
 25 22  2  0  0  0  0
 27 28  2  0  0  0  0
 28 26  1  0  0  0  0
 28 37  1  0  0  0  0
 29  1  1  0  0  0  0
 32  5  1  0  0  0  0
 33  8  1  0  0  0  0
 34 23  1  0  0  0  0
 35 24  1  0  0  0  0
 36 27  1  0  0  0  0
M  END
$$$$
scan_sander_basal_param/min_pdbs/min_pdb_C271_225.pdb
 OpenBabel10021702243D

 37 42  0  0  1  0  0  0  0  0999 V2000
   -0.3360    0.2570   -0.4510 C   0  0  0  0  0  0  0  0  0  0  0  0
   -0.1830    0.8070    0.8330 C   0  0  0  0  0  0  0  0  0  0  0  0
    0.2440    0.7890   -1.5430 N   0  0  0  0  0  0  0  0  0  0  0  0
    0.6080    1.9560    0.9900 C   0  0  0  0  0  0  0  0  0  0  0  0
    1.0040    1.8930   -1.3890 C   0  0  0  0  0  0  0  0  0  0  0  0
    1.2320    2.5300   -0.1430 C   0  0  0  0  0  0  0  0  0  0  0  0
    2.0760    3.7620   -0.0500 C   0  0  0  0  0  0  0  0  0  0  0  0
    1.9310    4.8080   -0.9870 C   0  0  0  0  0  0  0  0  0  0  0  0
    3.0680    3.9640    0.9370 C   0  0  0  0  0  0  0  0  0  0  0  0
    2.6610    5.9400   -0.9640 N   0  0  0  0  0  0  0  0  0  0  0  0
    3.3650    3.0650    1.8960 N   0  0  0  0  0  0  0  0  0  0  0  0
    3.8270    5.1290    0.9620 C   0  0  0  0  0  0  0  0  0  0  0  0
    3.6060    6.1350   -0.0170 C   0  0  0  0  0  0  0  0  0  0  0  0
    4.5670    3.7480    2.7660 S   0  0  0  0  0  0  0  0  0  0  0  0
    4.7370    5.1640    1.9640 N   0  0  0  0  0  0  0  0  0  0  0  0
    4.3720    7.4080   -0.0550 C   0  0  1  0  0  0  0  0  0  0  0  0
    5.6730    7.8860    1.0600 B   0  0  0  0  0  0  0  0  0  0  0  0
    4.1870    8.4270   -0.9770 C   0  0  0  0  0  0  0  0  0  0  0  0
    5.9150    9.4340    0.2470 C   0  0  0  0  0  0  0  0  0  0  0  0
    3.0660    8.5530   -2.3140 S   0  0  0  0  0  0  0  0  0  0  0  0
    5.0320    9.5230   -0.8030 C   0  0  0  0  0  0  0  0  0  0  0  0
    6.8950   10.4140    0.6420 C   0  0  0  0  0  0  0  0  0  0  0  0
    3.7650   10.1570   -2.6600 C   0  0  0  0  0  0  0  0  0  0  0  0
    4.7790   10.5250   -1.7880 C   0  0  0  0  0  0  0  0  0  0  0  0
    7.0140   11.5400   -0.0380 C   0  0  0  0  0  0  0  0  0  0  0  0
    7.9720   10.2030    2.0040 S   0  0  0  0  0  0  0  0  0  0  0  0
    8.0050   12.3240    0.5080 C   0  0  0  0  0  0  0  0  0  0  0  0
    8.6270   11.7730    1.6050 C   0  0  0  0  0  0  0  0  0  0  0  0
   -0.9430   -0.6340   -0.6100 H   0  0  0  0  0  0  0  0  0  0  0  0
   -0.6710    0.3490    1.6880 H   0  0  0  0  0  0  0  0  0  0  0  0
    0.7330    2.4020    1.9720 H   0  0  0  0  0  0  0  0  0  0  0  0
    1.4570    2.2860   -2.2980 H   0  0  0  0  0  0  0  0  0  0  0  0
    1.1900    4.7380   -1.7830 H   0  0  0  0  0  0  0  0  0  0  0  0
    3.3730   10.7230   -3.4950 H   0  0  0  0  0  0  0  0  0  0  0  0
    5.3090   11.4670   -1.8570 H   0  0  0  0  0  0  0  0  0  0  0  0
    8.2230   13.2850    0.0580 H   0  0  0  0  0  0  0  0  0  0  0  0
    9.4260   12.1890    2.2020 H   0  0  0  0  0  0  0  0  0  0  0  0
  1  2  2  0  0  0  0
  2  4  1  0  0  0  0
  2 30  1  0  0  0  0
  3  5  2  0  0  0  0
  3  1  1  0  0  0  0
  4 31  1  0  0  0  0
  5  6  1  0  0  0  0
  6  7  1  0  0  0  0
  6  4  2  0  0  0  0
  7  9  1  0  0  0  0
  8 10  1  0  0  0  0
  8  7  2  0  0  0  0
  9 12  1  0  0  0  0
  9 11  2  0  0  0  0
 10 13  2  0  0  0  0
 11 14  1  0  0  0  0
 12 15  2  0  0  0  0
 13 12  1  0  0  0  0
 15 14  1  0  0  0  0
 16 13  1  6  0  0  0
 16 17  1  0  0  0  0
 18 21  2  0  0  0  0
 18 16  1  0  0  0  0
 19 22  1  0  0  0  0
 19 17  2  0  0  0  0
 20 18  1  0  0  0  0
 21 19  1  0  0  0  0
 22 26  1  0  0  0  0
 23 20  1  0  0  0  0
 23 24  2  0  0  0  0
 24 21  1  0  0  0  0
 25 27  1  0  0  0  0
 25 22  2  0  0  0  0
 27 28  2  0  0  0  0
 28 26  1  0  0  0  0
 28 37  1  0  0  0  0
 29  1  1  0  0  0  0
 32  5  1  0  0  0  0
 33  8  1  0  0  0  0
 34 23  1  0  0  0  0
 35 24  1  0  0  0  0
 36 27  1  0  0  0  0
M  END
$$$$
scan_sander_basal_param/min_pdbs/min_pdb_C271_240.pdb
 OpenBabel10021702243D

 37 42  0  0  1  0  0  0  0  0999 V2000
   -0.0980    0.1110   -0.3820 C   0  0  0  0  0  0  0  0  0  0  0  0
   -0.8070    1.2570    0.0160 C   0  0  0  0  0  0  0  0  0  0  0  0
    1.2210    0.1290   -0.6570 N   0  0  0  0  0  0  0  0  0  0  0  0
   -0.1170    2.4750    0.1340 C   0  0  0  0  0  0  0  0  0  0  0  0
    1.8810    1.3000   -0.5410 C   0  0  0  0  0  0  0  0  0  0  0  0
    1.2670    2.5140   -0.1490 C   0  0  0  0  0  0  0  0  0  0  0  0
    2.0480    3.7810   -0.0510 C   0  0  0  0  0  0  0  0  0  0  0  0
    2.7190    4.3120   -1.1720 C   0  0  0  0  0  0  0  0  0  0  0  0
    2.1780    4.5150    1.1460 C   0  0  0  0  0  0  0  0  0  0  0  0
    3.4420    5.4480   -1.1360 N   0  0  0  0  0  0  0  0  0  0  0  0
    1.6090    4.1460    2.3110 N   0  0  0  0  0  0  0  0  0  0  0  0
    2.9240    5.6860    1.1890 C   0  0  0  0  0  0  0  0  0  0  0  0
    3.5670    6.1550    0.0110 C   0  0  0  0  0  0  0  0  0  0  0  0
    2.0520    5.3000    3.3800 S   0  0  0  0  0  0  0  0  0  0  0  0
    2.9500    6.2680    2.4120 N   0  0  0  0  0  0  0  0  0  0  0  0
    4.3810    7.3970   -0.0260 C   0  0  1  0  0  0  0  0  0  0  0  0
    4.7090    8.4780    1.3480 B   0  0  0  0  0  0  0  0  0  0  0  0
    5.0160    7.9070   -1.1480 C   0  0  0  0  0  0  0  0  0  0  0  0
    5.6830    9.5720    0.3620 C   0  0  0  0  0  0  0  0  0  0  0  0
    5.0700    7.3030   -2.7890 S   0  0  0  0  0  0  0  0  0  0  0  0
    5.7220    9.0890   -0.9240 C   0  0  0  0  0  0  0  0  0  0  0  0
    6.3260   10.7610    0.8620 C   0  0  0  0  0  0  0  0  0  0  0  0
    6.0910    8.7070   -3.1990 C   0  0  0  0  0  0  0  0  0  0  0  0
    6.3440    9.5470   -2.1250 C   0  0  0  0  0  0  0  0  0  0  0  0
    7.0490   11.5110    0.0510 C   0  0  0  0  0  0  0  0  0  0  0  0
    6.2100   11.2910    2.5250 S   0  0  0  0  0  0  0  0  0  0  0  0
    7.5680   12.5880    0.7340 C   0  0  0  0  0  0  0  0  0  0  0  0
    7.2250   12.6350    2.0660 C   0  0  0  0  0  0  0  0  0  0  0  0
   -0.6010   -0.8500   -0.4840 H   0  0  0  0  0  0  0  0  0  0  0  0
   -1.8700    1.1990    0.2300 H   0  0  0  0  0  0  0  0  0  0  0  0
   -0.6390    3.3770    0.4420 H   0  0  0  0  0  0  0  0  0  0  0  0
    2.9450    1.2730   -0.7700 H   0  0  0  0  0  0  0  0  0  0  0  0
    2.6700    3.8060   -2.1360 H   0  0  0  0  0  0  0  0  0  0  0  0
    6.4370    8.8150   -4.2180 H   0  0  0  0  0  0  0  0  0  0  0  0
    6.9450   10.4440   -2.2010 H   0  0  0  0  0  0  0  0  0  0  0  0
    8.1870   13.3000    0.2010 H   0  0  0  0  0  0  0  0  0  0  0  0
    7.5060   13.3740    2.8040 H   0  0  0  0  0  0  0  0  0  0  0  0
  1  2  2  0  0  0  0
  2  4  1  0  0  0  0
  2 30  1  0  0  0  0
  3  5  2  0  0  0  0
  3  1  1  0  0  0  0
  4 31  1  0  0  0  0
  5  6  1  0  0  0  0
  6  7  1  0  0  0  0
  6  4  2  0  0  0  0
  7  9  1  0  0  0  0
  8 10  1  0  0  0  0
  8  7  2  0  0  0  0
  9 12  1  0  0  0  0
  9 11  2  0  0  0  0
 10 13  2  0  0  0  0
 11 14  1  0  0  0  0
 12 15  2  0  0  0  0
 13 12  1  0  0  0  0
 15 14  1  0  0  0  0
 16 13  1  1  0  0  0
 16 17  1  0  0  0  0
 18 21  2  0  0  0  0
 18 16  1  0  0  0  0
 19 22  1  0  0  0  0
 19 17  2  0  0  0  0
 20 18  1  0  0  0  0
 21 19  1  0  0  0  0
 22 26  1  0  0  0  0
 23 20  1  0  0  0  0
 23 24  2  0  0  0  0
 24 21  1  0  0  0  0
 25 27  1  0  0  0  0
 25 22  2  0  0  0  0
 27 28  2  0  0  0  0
 28 26  1  0  0  0  0
 28 37  1  0  0  0  0
 29  1  1  0  0  0  0
 32  5  1  0  0  0  0
 33  8  1  0  0  0  0
 34 23  1  0  0  0  0
 35 24  1  0  0  0  0
 36 27  1  0  0  0  0
M  END
$$$$
scan_sander_basal_param/min_pdbs/min_pdb_C271_255.pdb
 OpenBabel10021702243D

 37 42  0  0  1  0  0  0  0  0999 V2000
   -0.0820    0.1010   -0.2980 C   0  0  0  0  0  0  0  0  0  0  0  0
   -0.8190    1.2910   -0.1840 C   0  0  0  0  0  0  0  0  0  0  0  0
    1.2650    0.0770   -0.3240 N   0  0  0  0  0  0  0  0  0  0  0  0
   -0.1290    2.5110   -0.0940 C   0  0  0  0  0  0  0  0  0  0  0  0
    1.9260    1.2490   -0.2350 C   0  0  0  0  0  0  0  0  0  0  0  0
    1.2840    2.5050   -0.1200 C   0  0  0  0  0  0  0  0  0  0  0  0
    2.0650    3.7700   -0.0340 C   0  0  0  0  0  0  0  0  0  0  0  0
    2.6940    4.3220   -1.1690 C   0  0  0  0  0  0  0  0  0  0  0  0
    2.2280    4.4850    1.1690 C   0  0  0  0  0  0  0  0  0  0  0  0
    3.4130    5.4610   -1.1380 N   0  0  0  0  0  0  0  0  0  0  0  0
    1.6940    4.0960    2.3420 N   0  0  0  0  0  0  0  0  0  0  0  0
    2.9690    5.6600    1.2070 C   0  0  0  0  0  0  0  0  0  0  0  0
    3.5720    6.1500    0.0160 C   0  0  0  0  0  0  0  0  0  0  0  0
    2.1620    5.2350    3.4150 S   0  0  0  0  0  0  0  0  0  0  0  0
    3.0280    6.2230    2.4370 N   0  0  0  0  0  0  0  0  0  0  0  0
    4.3790    7.3960   -0.0270 C   0  0  1  0  0  0  0  0  0  0  0  0
    4.7460    8.4570    1.3530 B   0  0  0  0  0  0  0  0  0  0  0  0
    4.9760    7.9270   -1.1600 C   0  0  0  0  0  0  0  0  0  0  0  0
    5.6850    9.5700    0.3550 C   0  0  0  0  0  0  0  0  0  0  0  0
    4.9790    7.3500   -2.8120 S   0  0  0  0  0  0  0  0  0  0  0  0
    5.6830    9.1080   -0.9390 C   0  0  0  0  0  0  0  0  0  0  0  0
    6.3390   10.7540    0.8530 C   0  0  0  0  0  0  0  0  0  0  0  0
    5.9810    8.7640   -3.2310 C   0  0  0  0  0  0  0  0  0  0  0  0
    6.2650    9.5880   -2.1520 C   0  0  0  0  0  0  0  0  0  0  0  0
    7.0320   11.5190    0.0320 C   0  0  0  0  0  0  0  0  0  0  0  0
    6.2730   11.2560    2.5280 S   0  0  0  0  0  0  0  0  0  0  0  0
    7.5690   12.5870    0.7150 C   0  0  0  0  0  0  0  0  0  0  0  0
    7.2690   12.6120    2.0580 C   0  0  0  0  0  0  0  0  0  0  0  0
   -0.5840   -0.8630   -0.3690 H   0  0  0  0  0  0  0  0  0  0  0  0
   -1.9040    1.2660   -0.1650 H   0  0  0  0  0  0  0  0  0  0  0  0
   -0.6710    3.4480   -0.0010 H   0  0  0  0  0  0  0  0  0  0  0  0
    3.0130    1.1900   -0.2570 H   0  0  0  0  0  0  0  0  0  0  0  0
    2.6150    3.8280   -2.1380 H   0  0  0  0  0  0  0  0  0  0  0  0
    6.2950    8.8900   -4.2590 H   0  0  0  0  0  0  0  0  0  0  0  0
    6.8600   10.4890   -2.2330 H   0  0  0  0  0  0  0  0  0  0  0  0
    8.1690   13.3100    0.1750 H   0  0  0  0  0  0  0  0  0  0  0  0
    7.5710   13.3390    2.7990 H   0  0  0  0  0  0  0  0  0  0  0  0
  1  2  1  0  0  0  0
  2 30  1  0  0  0  0
  2  4  2  0  0  0  0
  3  1  2  0  0  0  0
  3  5  1  0  0  0  0
  4 31  1  0  0  0  0
  5  6  2  0  0  0  0
  6  4  1  0  0  0  0
  6  7  1  0  0  0  0
  7  9  1  0  0  0  0
  8 10  1  0  0  0  0
  8  7  2  0  0  0  0
  9 12  1  0  0  0  0
  9 11  2  0  0  0  0
 10 13  2  0  0  0  0
 11 14  1  0  0  0  0
 12 15  2  0  0  0  0
 13 12  1  0  0  0  0
 15 14  1  0  0  0  0
 16 13  1  1  0  0  0
 16 17  1  0  0  0  0
 18 21  2  0  0  0  0
 18 16  1  0  0  0  0
 19 22  1  0  0  0  0
 19 17  2  0  0  0  0
 20 18  1  0  0  0  0
 21 19  1  0  0  0  0
 22 26  1  0  0  0  0
 23 20  1  0  0  0  0
 23 24  2  0  0  0  0
 24 21  1  0  0  0  0
 25 27  1  0  0  0  0
 25 22  2  0  0  0  0
 27 28  2  0  0  0  0
 28 26  1  0  0  0  0
 28 37  1  0  0  0  0
 29  1  1  0  0  0  0
 32  5  1  0  0  0  0
 33  8  1  0  0  0  0
 34 23  1  0  0  0  0
 35 24  1  0  0  0  0
 36 27  1  0  0  0  0
M  END
$$$$
scan_sander_basal_param/min_pdbs/min_pdb_C271_270.pdb
 OpenBabel10021702243D

 37 42  0  0  1  0  0  0  0  0999 V2000
   -0.0890    0.1030   -0.2240 C   0  0  0  0  0  0  0  0  0  0  0  0
   -0.8020    1.3000   -0.4030 C   0  0  0  0  0  0  0  0  0  0  0  0
    1.2370    0.0710    0.0120 N   0  0  0  0  0  0  0  0  0  0  0  0
   -0.1080    2.5200   -0.3340 C   0  0  0  0  0  0  0  0  0  0  0  0
    1.9010    1.2440    0.0800 C   0  0  0  0  0  0  0  0  0  0  0  0
    1.2830    2.5060   -0.0880 C   0  0  0  0  0  0  0  0  0  0  0  0
    2.0670    3.7690   -0.0110 C   0  0  0  0  0  0  0  0  0  0  0  0
    2.6620    4.3340   -1.1570 C   0  0  0  0  0  0  0  0  0  0  0  0
    2.2630    4.4690    1.1950 C   0  0  0  0  0  0  0  0  0  0  0  0
    3.3810    5.4740   -1.1320 N   0  0  0  0  0  0  0  0  0  0  0  0
    1.7630    4.0620    2.3770 N   0  0  0  0  0  0  0  0  0  0  0  0
    3.0040    5.6440    1.2270 C   0  0  0  0  0  0  0  0  0  0  0  0
    3.5720    6.1490    0.0250 C   0  0  0  0  0  0  0  0  0  0  0  0
    2.2590    5.1900    3.4510 S   0  0  0  0  0  0  0  0  0  0  0  0
    3.0970    6.1900    2.4620 N   0  0  0  0  0  0  0  0  0  0  0  0
    4.3770    7.3960   -0.0240 C   0  0  1  0  0  0  0  0  0  0  0  0
    4.7830    8.4390    1.3590 B   0  0  0  0  0  0  0  0  0  0  0  0
    4.9420    7.9420   -1.1670 C   0  0  0  0  0  0  0  0  0  0  0  0
    5.6940    9.5650    0.3480 C   0  0  0  0  0  0  0  0  0  0  0  0
    4.8980    7.3860   -2.8250 S   0  0  0  0  0  0  0  0  0  0  0  0
    5.6550    9.1200   -0.9510 C   0  0  0  0  0  0  0  0  0  0  0  0
    6.3630   10.7420    0.8430 C   0  0  0  0  0  0  0  0  0  0  0  0
    5.8880    8.8060   -3.2550 C   0  0  0  0  0  0  0  0  0  0  0  0
    6.2020    9.6160   -2.1740 C   0  0  0  0  0  0  0  0  0  0  0  0
    7.0330   11.5180    0.0120 C   0  0  0  0  0  0  0  0  0  0  0  0
    6.3450   11.2220    2.5250 S   0  0  0  0  0  0  0  0  0  0  0  0
    7.5910   12.5760    0.6940 C   0  0  0  0  0  0  0  0  0  0  0  0
    7.3290   12.5830    2.0450 C   0  0  0  0  0  0  0  0  0  0  0  0
   -0.5950   -0.8610   -0.2700 H   0  0  0  0  0  0  0  0  0  0  0  0
   -1.8710    1.2810   -0.5890 H   0  0  0  0  0  0  0  0  0  0  0  0
   -0.6320    3.4620   -0.4660 H   0  0  0  0  0  0  0  0  0  0  0  0
    2.9700    1.1790    0.2750 H   0  0  0  0  0  0  0  0  0  0  0  0
    2.5570    3.8530   -2.1290 H   0  0  0  0  0  0  0  0  0  0  0  0
    6.1720    8.9450   -4.2890 H   0  0  0  0  0  0  0  0  0  0  0  0
    6.7950   10.5180   -2.2600 H   0  0  0  0  0  0  0  0  0  0  0  0
    8.1750   13.3060    0.1460 H   0  0  0  0  0  0  0  0  0  0  0  0
    7.6520   13.3010    2.7870 H   0  0  0  0  0  0  0  0  0  0  0  0
  1  3  2  0  0  0  0
  2  4  2  0  0  0  0
  2  1  1  0  0  0  0
  3  5  1  0  0  0  0
  4  6  1  0  0  0  0
  5 32  1  0  0  0  0
  6  7  1  0  0  0  0
  6  5  2  0  0  0  0
  7  9  1  0  0  0  0
  8 10  1  0  0  0  0
  8  7  2  0  0  0  0
  9 12  1  0  0  0  0
  9 11  2  0  0  0  0
 10 13  2  0  0  0  0
 11 14  1  0  0  0  0
 12 15  2  0  0  0  0
 13 12  1  0  0  0  0
 15 14  1  0  0  0  0
 16 13  1  1  0  0  0
 16 17  1  0  0  0  0
 18 21  2  0  0  0  0
 18 16  1  0  0  0  0
 19 22  1  0  0  0  0
 19 17  2  0  0  0  0
 20 18  1  0  0  0  0
 21 19  1  0  0  0  0
 22 26  1  0  0  0  0
 23 20  1  0  0  0  0
 23 24  2  0  0  0  0
 24 21  1  0  0  0  0
 25 27  1  0  0  0  0
 25 22  2  0  0  0  0
 27 28  2  0  0  0  0
 28 26  1  0  0  0  0
 28 37  1  0  0  0  0
 29  1  1  0  0  0  0
 30  2  1  0  0  0  0
 31  4  1  0  0  0  0
 33  8  1  0  0  0  0
 34 23  1  0  0  0  0
 35 24  1  0  0  0  0
 36 27  1  0  0  0  0
M  END
$$$$
scan_sander_basal_param/min_pdbs/min_pdb_C271_285.pdb
 OpenBabel10021702243D

 37 42  0  0  1  0  0  0  0  0999 V2000
   -0.1190    0.1160   -0.1590 C   0  0  0  0  0  0  0  0  0  0  0  0
   -0.7480    1.2860   -0.6170 C   0  0  0  0  0  0  0  0  0  0  0  0
    1.1360    0.1070    0.3300 N   0  0  0  0  0  0  0  0  0  0  0  0
   -0.0440    2.5000   -0.5650 C   0  0  0  0  0  0  0  0  0  0  0  0
    1.8100    1.2750    0.3810 C   0  0  0  0  0  0  0  0  0  0  0  0
    1.2740    2.5100   -0.0560 C   0  0  0  0  0  0  0  0  0  0  0  0
    2.0650    3.7690    0.0150 C   0  0  0  0  0  0  0  0  0  0  0  0
    2.6300    4.3480   -1.1390 C   0  0  0  0  0  0  0  0  0  0  0  0
    2.2990    4.4530    1.2240 C   0  0  0  0  0  0  0  0  0  0  0  0
    3.3520    5.4860   -1.1220 N   0  0  0  0  0  0  0  0  0  0  0  0
    1.8340    4.0320    2.4160 N   0  0  0  0  0  0  0  0  0  0  0  0
    3.0430    5.6260    1.2500 C   0  0  0  0  0  0  0  0  0  0  0  0
    3.5770    6.1450    0.0390 C   0  0  0  0  0  0  0  0  0  0  0  0
    2.3630    5.1450    3.4890 S   0  0  0  0  0  0  0  0  0  0  0  0
    3.1740    6.1560    2.4880 N   0  0  0  0  0  0  0  0  0  0  0  0
    4.3820    7.3930   -0.0190 C   0  0  1  0  0  0  0  0  0  0  0  0
    4.8290    8.4180    1.3640 B   0  0  0  0  0  0  0  0  0  0  0  0
    4.9130    7.9520   -1.1710 C   0  0  0  0  0  0  0  0  0  0  0  0
    5.7080    9.5580    0.3420 C   0  0  0  0  0  0  0  0  0  0  0  0
    4.8210    7.4170   -2.8340 S   0  0  0  0  0  0  0  0  0  0  0  0
    5.6320    9.1290   -0.9620 C   0  0  0  0  0  0  0  0  0  0  0  0
    6.3890   10.7300    0.8310 C   0  0  0  0  0  0  0  0  0  0  0  0
    5.7980    8.8430   -3.2740 C   0  0  0  0  0  0  0  0  0  0  0  0
    6.1430    9.6400   -2.1930 C   0  0  0  0  0  0  0  0  0  0  0  0
    7.0340   11.5170   -0.0090 C   0  0  0  0  0  0  0  0  0  0  0  0
    6.4200   11.1900    2.5180 S   0  0  0  0  0  0  0  0  0  0  0  0
    7.6080   12.5690    0.6680 C   0  0  0  0  0  0  0  0  0  0  0  0
    7.3860   12.5590    2.0260 C   0  0  0  0  0  0  0  0  0  0  0  0
   -0.6350   -0.8430   -0.1840 H   0  0  0  0  0  0  0  0  0  0  0  0
   -1.7630    1.2490   -1.0020 H   0  0  0  0  0  0  0  0  0  0  0  0
   -0.5060    3.4220   -0.9100 H   0  0  0  0  0  0  0  0  0  0  0  0
    2.8200    1.2290    0.7850 H   0  0  0  0  0  0  0  0  0  0  0  0
    2.4960    3.8790   -2.1140 H   0  0  0  0  0  0  0  0  0  0  0  0
    6.0510    8.9950   -4.3150 H   0  0  0  0  0  0  0  0  0  0  0  0
    6.7330   10.5430   -2.2860 H   0  0  0  0  0  0  0  0  0  0  0  0
    8.1750   13.3060    0.1130 H   0  0  0  0  0  0  0  0  0  0  0  0
    7.7290   13.2690    2.7670 H   0  0  0  0  0  0  0  0  0  0  0  0
  1  3  2  0  0  0  0
  2  4  2  0  0  0  0
  2  1  1  0  0  0  0
  3  5  1  0  0  0  0
  4  6  1  0  0  0  0
  5 32  1  0  0  0  0
  6  7  1  0  0  0  0
  6  5  2  0  0  0  0
  7  9  1  0  0  0  0
  8 10  1  0  0  0  0
  8  7  2  0  0  0  0
  9 12  1  0  0  0  0
  9 11  2  0  0  0  0
 10 13  2  0  0  0  0
 11 14  1  0  0  0  0
 12 15  2  0  0  0  0
 13 12  1  0  0  0  0
 15 14  1  0  0  0  0
 16 13  1  1  0  0  0
 16 17  1  0  0  0  0
 18 21  2  0  0  0  0
 18 16  1  0  0  0  0
 19 22  1  0  0  0  0
 19 17  2  0  0  0  0
 20 18  1  0  0  0  0
 21 19  1  0  0  0  0
 22 26  1  0  0  0  0
 23 20  1  0  0  0  0
 23 24  2  0  0  0  0
 24 21  1  0  0  0  0
 25 27  1  0  0  0  0
 25 22  2  0  0  0  0
 27 28  2  0  0  0  0
 28 26  1  0  0  0  0
 28 37  1  0  0  0  0
 29  1  1  0  0  0  0
 30  2  1  0  0  0  0
 31  4  1  0  0  0  0
 33  8  1  0  0  0  0
 34 23  1  0  0  0  0
 35 24  1  0  0  0  0
 36 27  1  0  0  0  0
M  END
$$$$
scan_sander_basal_param/min_pdbs/min_pdb_C271_300.pdb
 OpenBabel10021702243D

 37 42  0  0  1  0  0  0  0  0999 V2000
   -0.1470    0.1270   -0.1130 C   0  0  0  0  0  0  0  0  0  0  0  0
   -0.6480    1.2340   -0.8180 C   0  0  0  0  0  0  0  0  0  0  0  0
    0.9910    0.1750    0.6070 N   0  0  0  0  0  0  0  0  0  0  0  0
    0.0630    2.4450   -0.7750 C   0  0  0  0  0  0  0  0  0  0  0  0
    1.6710    1.3400    0.6480 C   0  0  0  0  0  0  0  0  0  0  0  0
    1.2590    2.5150   -0.0260 C   0  0  0  0  0  0  0  0  0  0  0  0
    2.0540    3.7750    0.0450 C   0  0  0  0  0  0  0  0  0  0  0  0
    2.5840    4.3710   -1.1180 C   0  0  0  0  0  0  0  0  0  0  0  0
    2.3280    4.4430    1.2560 C   0  0  0  0  0  0  0  0  0  0  0  0
    3.3090    5.5070   -1.1070 N   0  0  0  0  0  0  0  0  0  0  0  0
    1.8960    4.0110    2.4570 N   0  0  0  0  0  0  0  0  0  0  0  0
    3.0740    5.6150    1.2730 C   0  0  0  0  0  0  0  0  0  0  0  0
    3.5720    6.1500    0.0540 C   0  0  0  0  0  0  0  0  0  0  0  0
    2.4600    5.1100    3.5270 S   0  0  0  0  0  0  0  0  0  0  0  0
    3.2430    6.1310    2.5140 N   0  0  0  0  0  0  0  0  0  0  0  0
    4.3770    7.3970   -0.0110 C   0  0  1  0  0  0  0  0  0  0  0  0
    4.8700    8.4020    1.3700 B   0  0  0  0  0  0  0  0  0  0  0  0
    4.8740    7.9700   -1.1720 C   0  0  0  0  0  0  0  0  0  0  0  0
    5.7210    9.5530    0.3370 C   0  0  0  0  0  0  0  0  0  0  0  0
    4.7290    7.4580   -2.8380 S   0  0  0  0  0  0  0  0  0  0  0  0
    5.6040    9.1420   -0.9700 C   0  0  0  0  0  0  0  0  0  0  0  0
    6.4220   10.7160    0.8200 C   0  0  0  0  0  0  0  0  0  0  0  0
    5.6960    8.8860   -3.2900 C   0  0  0  0  0  0  0  0  0  0  0  0
    6.0780    9.6680   -2.2090 C   0  0  0  0  0  0  0  0  0  0  0  0
    7.0430   11.5120   -0.0290 C   0  0  0  0  0  0  0  0  0  0  0  0
    6.5070   11.1520    2.5120 S   0  0  0  0  0  0  0  0  0  0  0  0
    7.6430   12.5520    0.6450 C   0  0  0  0  0  0  0  0  0  0  0  0
    7.4630   12.5250    2.0090 C   0  0  0  0  0  0  0  0  0  0  0  0
   -0.6730   -0.8270   -0.1240 H   0  0  0  0  0  0  0  0  0  0  0  0
   -1.5710    1.1530   -1.3840 H   0  0  0  0  0  0  0  0  0  0  0  0
   -0.3030    3.3180   -1.3080 H   0  0  0  0  0  0  0  0  0  0  0  0
    2.5840    1.3390    1.2420 H   0  0  0  0  0  0  0  0  0  0  0  0
    2.4220    3.9150   -2.0950 H   0  0  0  0  0  0  0  0  0  0  0  0
    5.9180    9.0520   -4.3360 H   0  0  0  0  0  0  0  0  0  0  0  0
    6.6680   10.5710   -2.3080 H   0  0  0  0  0  0  0  0  0  0  0  0
    8.1960   13.2950    0.0820 H   0  0  0  0  0  0  0  0  0  0  0  0
    7.8320   13.2230    2.7480 H   0  0  0  0  0  0  0  0  0  0  0  0
  1  3  2  0  0  0  0
  2  4  2  0  0  0  0
  2  1  1  0  0  0  0
  3  5  1  0  0  0  0
  4  6  1  0  0  0  0
  5 32  1  0  0  0  0
  6  7  1  0  0  0  0
  6  5  2  0  0  0  0
  7  9  1  0  0  0  0
  8 10  1  0  0  0  0
  8  7  2  0  0  0  0
  9 12  1  0  0  0  0
  9 11  2  0  0  0  0
 10 13  2  0  0  0  0
 11 14  1  0  0  0  0
 12 15  2  0  0  0  0
 13 12  1  0  0  0  0
 15 14  1  0  0  0  0
 16 13  1  1  0  0  0
 16 17  1  0  0  0  0
 18 21  2  0  0  0  0
 18 16  1  0  0  0  0
 19 22  1  0  0  0  0
 19 17  2  0  0  0  0
 20 18  1  0  0  0  0
 21 19  1  0  0  0  0
 22 26  1  0  0  0  0
 23 20  1  0  0  0  0
 23 24  2  0  0  0  0
 24 21  1  0  0  0  0
 25 27  1  0  0  0  0
 25 22  2  0  0  0  0
 27 28  2  0  0  0  0
 28 26  1  0  0  0  0
 28 37  1  0  0  0  0
 29  1  1  0  0  0  0
 30  2  1  0  0  0  0
 31  4  1  0  0  0  0
 33  8  1  0  0  0  0
 34 23  1  0  0  0  0
 35 24  1  0  0  0  0
 36 27  1  0  0  0  0
M  END
$$$$
scan_sander_basal_param/min_pdbs/min_pdb_C271_315.pdb
 OpenBabel10021702243D

 37 42  0  0  1  0  0  0  0  0999 V2000
   -0.1870    0.1380   -0.0950 C   0  0  0  0  0  0  0  0  0  0  0  0
   -0.5070    1.1590   -1.0050 C   0  0  0  0  0  0  0  0  0  0  0  0
    0.7880    0.2640    0.8260 N   0  0  0  0  0  0  0  0  0  0  0  0
    0.2130    2.3620   -0.9560 C   0  0  0  0  0  0  0  0  0  0  0  0
    1.4770    1.4230    0.8720 C   0  0  0  0  0  0  0  0  0  0  0  0
    1.2400    2.5200    0.0050 C   0  0  0  0  0  0  0  0  0  0  0  0
    2.0360    3.7840    0.0820 C   0  0  0  0  0  0  0  0  0  0  0  0
    2.5370    4.3970   -1.0860 C   0  0  0  0  0  0  0  0  0  0  0  0
    2.3470    4.4410    1.2940 C   0  0  0  0  0  0  0  0  0  0  0  0
    3.2660    5.5290   -1.0830 N   0  0  0  0  0  0  0  0  0  0  0  0
    1.9410    4.0100    2.5050 N   0  0  0  0  0  0  0  0  0  0  0  0
    3.0980    5.6110    1.3020 C   0  0  0  0  0  0  0  0  0  0  0  0
    3.5640    6.1580    0.0760 C   0  0  0  0  0  0  0  0  0  0  0  0
    2.5360    5.0990    3.5670 S   0  0  0  0  0  0  0  0  0  0  0  0
    3.3000    6.1190    2.5410 N   0  0  0  0  0  0  0  0  0  0  0  0
    4.3730    7.4020    0.0010 C   0  0  1  0  0  0  0  0  0  0  0  0
    4.9090    8.3920    1.3790 B   0  0  0  0  0  0  0  0  0  0  0  0
    4.8400    7.9860   -1.1670 C   0  0  0  0  0  0  0  0  0  0  0  0
    5.7360    9.5490    0.3340 C   0  0  0  0  0  0  0  0  0  0  0  0
    4.6460    7.4920   -2.8340 S   0  0  0  0  0  0  0  0  0  0  0  0
    5.5800    9.1520   -0.9730 C   0  0  0  0  0  0  0  0  0  0  0  0
    6.4560   10.7040    0.8090 C   0  0  0  0  0  0  0  0  0  0  0  0
    5.6060    8.9210   -3.2980 C   0  0  0  0  0  0  0  0  0  0  0  0
    6.0220    9.6890   -2.2200 C   0  0  0  0  0  0  0  0  0  0  0  0
    7.0570   11.5060   -0.0490 C   0  0  0  0  0  0  0  0  0  0  0  0
    6.5900   11.1220    2.5020 S   0  0  0  0  0  0  0  0  0  0  0  0
    7.6800   12.5370    0.6190 C   0  0  0  0  0  0  0  0  0  0  0  0
    7.5390   12.4950    1.9870 C   0  0  0  0  0  0  0  0  0  0  0  0
   -0.7250   -0.8090   -0.1040 H   0  0  0  0  0  0  0  0  0  0  0  0
   -1.3020    1.0160   -1.7310 H   0  0  0  0  0  0  0  0  0  0  0  0
   -0.0220    3.1680   -1.6460 H   0  0  0  0  0  0  0  0  0  0  0  0
    2.2600    1.4780    1.6270 H   0  0  0  0  0  0  0  0  0  0  0  0
    2.3520    3.9540   -2.0650 H   0  0  0  0  0  0  0  0  0  0  0  0
    5.7990    9.0960   -4.3480 H   0  0  0  0  0  0  0  0  0  0  0  0
    6.6120   10.5900   -2.3260 H   0  0  0  0  0  0  0  0  0  0  0  0
    8.2200   13.2830    0.0480 H   0  0  0  0  0  0  0  0  0  0  0  0
    7.9310   13.1840    2.7220 H   0  0  0  0  0  0  0  0  0  0  0  0
  1  3  2  0  0  0  0
  2  4  2  0  0  0  0
  2  1  1  0  0  0  0
  3  5  1  0  0  0  0
  4  6  1  0  0  0  0
  5 32  1  0  0  0  0
  6  7  1  0  0  0  0
  6  5  2  0  0  0  0
  7  9  1  0  0  0  0
  8 10  1  0  0  0  0
  8  7  2  0  0  0  0
  9 12  1  0  0  0  0
  9 11  2  0  0  0  0
 10 13  2  0  0  0  0
 11 14  1  0  0  0  0
 12 15  2  0  0  0  0
 13 12  1  0  0  0  0
 15 14  1  0  0  0  0
 16 13  1  1  0  0  0
 16 17  1  0  0  0  0
 18 21  2  0  0  0  0
 18 16  1  0  0  0  0
 19 22  1  0  0  0  0
 19 17  2  0  0  0  0
 20 18  1  0  0  0  0
 21 19  1  0  0  0  0
 22 26  1  0  0  0  0
 23 20  1  0  0  0  0
 23 24  2  0  0  0  0
 24 21  1  0  0  0  0
 25 27  1  0  0  0  0
 25 22  2  0  0  0  0
 27 28  2  0  0  0  0
 28 26  1  0  0  0  0
 28 37  1  0  0  0  0
 29  1  1  0  0  0  0
 30  2  1  0  0  0  0
 31  4  1  0  0  0  0
 33  8  1  0  0  0  0
 34 23  1  0  0  0  0
 35 24  1  0  0  0  0
 36 27  1  0  0  0  0
M  END
$$$$
scan_sander_basal_param/min_pdbs/min_pdb_C271_330.pdb
 OpenBabel10021702243D

 37 42  0  0  1  0  0  0  0  0999 V2000
   -0.2380    0.1450   -0.1030 C   0  0  0  0  0  0  0  0  0  0  0  0
   -0.3400    1.0640   -1.1580 C   0  0  0  0  0  0  0  0  0  0  0  0
    0.5400    0.3620    0.9730 N   0  0  0  0  0  0  0  0  0  0  0  0
    0.3930    2.2590   -1.0910 C   0  0  0  0  0  0  0  0  0  0  0  0
    1.2400    1.5140    1.0370 C   0  0  0  0  0  0  0  0  0  0  0  0
    1.2170    2.5200    0.0330 C   0  0  0  0  0  0  0  0  0  0  0  0
    2.0160    3.7920    0.1240 C   0  0  0  0  0  0  0  0  0  0  0  0
    2.4860    4.4290   -1.0480 C   0  0  0  0  0  0  0  0  0  0  0  0
    2.3700    4.4390    1.3360 C   0  0  0  0  0  0  0  0  0  0  0  0
    3.2210    5.5570   -1.0530 N   0  0  0  0  0  0  0  0  0  0  0  0
    1.9870    4.0180    2.5580 N   0  0  0  0  0  0  0  0  0  0  0  0
    3.1250    5.6090    1.3340 C   0  0  0  0  0  0  0  0  0  0  0  0
    3.5570    6.1700    0.1030 C   0  0  0  0  0  0  0  0  0  0  0  0
    2.6170    5.0950    3.6110 S   0  0  0  0  0  0  0  0  0  0  0  0
    3.3630    6.1110    2.5690 N   0  0  0  0  0  0  0  0  0  0  0  0
    4.3700    7.4110    0.0180 C   0  0  1  0  0  0  0  0  0  0  0  0
    4.9550    8.3820    1.3890 B   0  0  0  0  0  0  0  0  0  0  0  0
    4.8040    8.0050   -1.1580 C   0  0  0  0  0  0  0  0  0  0  0  0
    5.7540    9.5470    0.3310 C   0  0  0  0  0  0  0  0  0  0  0  0
    4.5560    7.5320   -2.8230 S   0  0  0  0  0  0  0  0  0  0  0  0
    5.5560    9.1660   -0.9740 C   0  0  0  0  0  0  0  0  0  0  0  0
    6.4940   10.6930    0.7980 C   0  0  0  0  0  0  0  0  0  0  0  0
    5.5090    8.9610   -3.3010 C   0  0  0  0  0  0  0  0  0  0  0  0
    5.9610    9.7150   -2.2280 C   0  0  0  0  0  0  0  0  0  0  0  0
    7.0720   11.5030   -0.0700 C   0  0  0  0  0  0  0  0  0  0  0  0
    6.6830   11.0920    2.4900 S   0  0  0  0  0  0  0  0  0  0  0  0
    7.7210   12.5230    0.5900 C   0  0  0  0  0  0  0  0  0  0  0  0
    7.6210   12.4670    1.9610 C   0  0  0  0  0  0  0  0  0  0  0  0
   -0.7930   -0.7930   -0.1190 H   0  0  0  0  0  0  0  0  0  0  0  0
   -0.9810    0.8520   -2.0080 H   0  0  0  0  0  0  0  0  0  0  0  0
    0.3070    2.9820   -1.8960 H   0  0  0  0  0  0  0  0  0  0  0  0
    1.8730    1.6150    1.9150 H   0  0  0  0  0  0  0  0  0  0  0  0
    2.2870    4.0030   -2.0300 H   0  0  0  0  0  0  0  0  0  0  0  0
    5.6700    9.1480   -4.3540 H   0  0  0  0  0  0  0  0  0  0  0  0
    6.5530   10.6150   -2.3420 H   0  0  0  0  0  0  0  0  0  0  0  0
    8.2460   13.2730    0.0110 H   0  0  0  0  0  0  0  0  0  0  0  0
    8.0390   13.1450    2.6920 H   0  0  0  0  0  0  0  0  0  0  0  0
  1  3  2  0  0  0  0
  2  4  2  0  0  0  0
  2  1  1  0  0  0  0
  3  5  1  0  0  0  0
  4  6  1  0  0  0  0
  5 32  1  0  0  0  0
  6  7  1  0  0  0  0
  6  5  2  0  0  0  0
  7  9  1  0  0  0  0
  8  7  2  0  0  0  0
  9 11  2  0  0  0  0
 10  8  1  0  0  0  0
 10 13  2  0  0  0  0
 11 14  1  0  0  0  0
 12  9  1  0  0  0  0
 12 15  2  0  0  0  0
 13 12  1  0  0  0  0
 15 14  1  0  0  0  0
 16 13  1  1  0  0  0
 16 17  1  0  0  0  0
 18 21  2  0  0  0  0
 18 16  1  0  0  0  0
 19 22  1  0  0  0  0
 19 17  2  0  0  0  0
 20 18  1  0  0  0  0
 21 19  1  0  0  0  0
 22 26  1  0  0  0  0
 23 20  1  0  0  0  0
 23 24  2  0  0  0  0
 24 21  1  0  0  0  0
 25 27  1  0  0  0  0
 25 22  2  0  0  0  0
 27 28  2  0  0  0  0
 28 26  1  0  0  0  0
 28 37  1  0  0  0  0
 29  1  1  0  0  0  0
 30  2  1  0  0  0  0
 31  4  1  0  0  0  0
 33  8  1  0  0  0  0
 34 23  1  0  0  0  0
 35 24  1  0  0  0  0
 36 27  1  0  0  0  0
M  END
$$$$
scan_sander_basal_param/min_pdbs/min_pdb_C271_345.pdb
 OpenBabel10021702243D

 37 42  0  0  1  0  0  0  0  0999 V2000
   -0.3030    0.1500   -0.1170 C   0  0  0  0  0  0  0  0  0  0  0  0
   -0.1620    0.9460   -1.2600 C   0  0  0  0  0  0  0  0  0  0  0  0
    0.2570    0.4790    1.0590 N   0  0  0  0  0  0  0  0  0  0  0  0
    0.5860    2.1310   -1.1770 C   0  0  0  0  0  0  0  0  0  0  0  0
    0.9710    1.6200    1.1370 C   0  0  0  0  0  0  0  0  0  0  0  0
    1.1880    2.5190    0.0520 C   0  0  0  0  0  0  0  0  0  0  0  0
    2.0010    3.7970    0.1550 C   0  0  0  0  0  0  0  0  0  0  0  0
    2.4440    4.4630   -1.0160 C   0  0  0  0  0  0  0  0  0  0  0  0
    2.3970    4.4340    1.3650 C   0  0  0  0  0  0  0  0  0  0  0  0
    3.1830    5.5880   -1.0260 N   0  0  0  0  0  0  0  0  0  0  0  0
    2.0530    4.0150    2.5990 N   0  0  0  0  0  0  0  0  0  0  0  0
    3.1570    5.6040    1.3570 C   0  0  0  0  0  0  0  0  0  0  0  0
    3.5550    6.1820    0.1250 C   0  0  0  0  0  0  0  0  0  0  0  0
    2.7200    5.0750    3.6450 S   0  0  0  0  0  0  0  0  0  0  0  0
    3.4350    6.0940    2.5880 N   0  0  0  0  0  0  0  0  0  0  0  0
    4.3710    7.4220    0.0320 C   0  0  1  0  0  0  0  0  0  0  0  0
    5.0000    8.3730    1.3970 B   0  0  0  0  0  0  0  0  0  0  0  0
    4.7710    8.0300   -1.1480 C   0  0  0  0  0  0  0  0  0  0  0  0
    5.7720    9.5500    0.3310 C   0  0  0  0  0  0  0  0  0  0  0  0
    4.4700    7.5800   -2.8120 S   0  0  0  0  0  0  0  0  0  0  0  0
    5.5320    9.1860   -0.9730 C   0  0  0  0  0  0  0  0  0  0  0  0
    6.5300   10.6870    0.7890 C   0  0  0  0  0  0  0  0  0  0  0  0
    5.4130    9.0120   -3.3000 C   0  0  0  0  0  0  0  0  0  0  0  0
    5.9010    9.7500   -2.2310 C   0  0  0  0  0  0  0  0  0  0  0  0
    7.0840   11.5060   -0.0860 C   0  0  0  0  0  0  0  0  0  0  0  0
    6.7720   11.0630    2.4800 S   0  0  0  0  0  0  0  0  0  0  0  0
    7.7570   12.5150    0.5670 C   0  0  0  0  0  0  0  0  0  0  0  0
    7.6990   12.4410    1.9400 C   0  0  0  0  0  0  0  0  0  0  0  0
   -0.8760   -0.7760   -0.1420 H   0  0  0  0  0  0  0  0  0  0  0  0
   -0.6310    0.6510   -2.1940 H   0  0  0  0  0  0  0  0  0  0  0  0
    0.6640    2.7470   -2.0650 H   0  0  0  0  0  0  0  0  0  0  0  0
    1.4190    1.7830    2.1110 H   0  0  0  0  0  0  0  0  0  0  0  0
    2.2350    4.0660   -2.0060 H   0  0  0  0  0  0  0  0  0  0  0  0
    5.5430    9.2120   -4.3550 H   0  0  0  0  0  0  0  0  0  0  0  0
    6.4930   10.6490   -2.3520 H   0  0  0  0  0  0  0  0  0  0  0  0
    8.2670   13.2710   -0.0180 H   0  0  0  0  0  0  0  0  0  0  0  0
    8.1420   13.1090    2.6660 H   0  0  0  0  0  0  0  0  0  0  0  0
  1  3  2  0  0  0  0
  2  4  2  0  0  0  0
  2  1  1  0  0  0  0
  3  5  1  0  0  0  0
  4  6  1  0  0  0  0
  5 32  1  0  0  0  0
  6  7  1  0  0  0  0
  6  5  2  0  0  0  0
  7  9  1  0  0  0  0
  8  7  2  0  0  0  0
  9 11  2  0  0  0  0
 10  8  1  0  0  0  0
 10 13  2  0  0  0  0
 11 14  1  0  0  0  0
 12  9  1  0  0  0  0
 12 15  2  0  0  0  0
 13 12  1  0  0  0  0
 15 14  1  0  0  0  0
 16 13  1  6  0  0  0
 16 17  1  0  0  0  0
 18 21  2  0  0  0  0
 18 16  1  0  0  0  0
 19 22  1  0  0  0  0
 19 17  2  0  0  0  0
 20 18  1  0  0  0  0
 21 19  1  0  0  0  0
 22 26  1  0  0  0  0
 23 20  1  0  0  0  0
 23 24  2  0  0  0  0
 24 21  1  0  0  0  0
 25 27  1  0  0  0  0
 25 22  2  0  0  0  0
 27 28  2  0  0  0  0
 28 26  1  0  0  0  0
 28 37  1  0  0  0  0
 29  1  1  0  0  0  0
 30  2  1  0  0  0  0
 31  4  1  0  0  0  0
 33  8  1  0  0  0  0
 34 23  1  0  0  0  0
 35 24  1  0  0  0  0
 36 27  1  0  0  0  0
M  END
$$$$
scan_sander_basal_param/min_pdbs/min_pdb_C271_360.pdb
 OpenBabel10021702243D

 37 42  0  0  1  0  0  0  0  0999 V2000
   -0.3780    0.1780   -0.1250 C   0  0  0  0  0  0  0  0  0  0  0  0
    0.0170    0.8250   -1.3010 C   0  0  0  0  0  0  0  0  0  0  0  0
   -0.0470    0.6420    1.0900 N   0  0  0  0  0  0  0  0  0  0  0  0
    0.7840    1.9960   -1.2100 C   0  0  0  0  0  0  0  0  0  0  0  0
    0.6910    1.7680    1.1740 C   0  0  0  0  0  0  0  0  0  0  0  0
    1.1600    2.5260    0.0590 C   0  0  0  0  0  0  0  0  0  0  0  0
    1.9950    3.7980    0.1670 C   0  0  0  0  0  0  0  0  0  0  0  0
    2.4180    4.4860   -1.0020 C   0  0  0  0  0  0  0  0  0  0  0  0
    2.4290    4.4190    1.3760 C   0  0  0  0  0  0  0  0  0  0  0  0
    3.1540    5.6110   -1.0130 N   0  0  0  0  0  0  0  0  0  0  0  0
    2.1600    3.9650    2.6160 N   0  0  0  0  0  0  0  0  0  0  0  0
    3.1950    5.5870    1.3660 C   0  0  0  0  0  0  0  0  0  0  0  0
    3.5590    6.1870    0.1350 C   0  0  0  0  0  0  0  0  0  0  0  0
    2.8640    5.0040    3.6580 S   0  0  0  0  0  0  0  0  0  0  0  0
    3.5250    6.0500    2.5950 N   0  0  0  0  0  0  0  0  0  0  0  0
    4.3720    7.4280    0.0380 C   0  0  1  0  0  0  0  0  0  0  0  0
    5.0420    8.3580    1.4000 B   0  0  0  0  0  0  0  0  0  0  0  0
    4.7390    8.0550   -1.1430 C   0  0  0  0  0  0  0  0  0  0  0  0
    5.7850    9.5490    0.3300 C   0  0  0  0  0  0  0  0  0  0  0  0
    4.3900    7.6310   -2.8040 S   0  0  0  0  0  0  0  0  0  0  0  0
    5.5070    9.2070   -0.9710 C   0  0  0  0  0  0  0  0  0  0  0  0
    6.5570   10.6780    0.7840 C   0  0  0  0  0  0  0  0  0  0  0  0
    5.3210    9.0700   -3.2960 C   0  0  0  0  0  0  0  0  0  0  0  0
    5.8400    9.7900   -2.2310 C   0  0  0  0  0  0  0  0  0  0  0  0
    7.0880   11.5100   -0.0920 C   0  0  0  0  0  0  0  0  0  0  0  0
    6.8490   11.0270    2.4730 S   0  0  0  0  0  0  0  0  0  0  0  0
    7.7810   12.5070    0.5560 C   0  0  0  0  0  0  0  0  0  0  0  0
    7.7630   12.4120    1.9290 C   0  0  0  0  0  0  0  0  0  0  0  0
   -0.9750   -0.7340   -0.1550 H   0  0  0  0  0  0  0  0  0  0  0  0
   -0.2680    0.4230   -2.2690 H   0  0  0  0  0  0  0  0  0  0  0  0
    1.0740    2.4710   -2.1380 H   0  0  0  0  0  0  0  0  0  0  0  0
    0.9000    2.0510    2.1970 H   0  0  0  0  0  0  0  0  0  0  0  0
    2.1640    4.1340   -1.9960 H   0  0  0  0  0  0  0  0  0  0  0  0
    5.4200    9.2860   -4.3510 H   0  0  0  0  0  0  0  0  0  0  0  0
    6.4290   10.6900   -2.3540 H   0  0  0  0  0  0  0  0  0  0  0  0
    8.2760   13.2710   -0.0310 H   0  0  0  0  0  0  0  0  0  0  0  0
    8.2290   13.0670    2.6520 H   0  0  0  0  0  0  0  0  0  0  0  0
  1  3  2  0  0  0  0
  2  4  2  0  0  0  0
  2  1  1  0  0  0  0
  3  5  1  0  0  0  0
  4  6  1  0  0  0  0
  5 32  1  0  0  0  0
  6  7  1  0  0  0  0
  6  5  2  0  0  0  0
  7  9  1  0  0  0  0
  8  7  2  0  0  0  0
  9 11  2  0  0  0  0
 10  8  1  0  0  0  0
 10 13  2  0  0  0  0
 11 14  1  0  0  0  0
 12  9  1  0  0  0  0
 12 15  2  0  0  0  0
 13 12  1  0  0  0  0
 15 14  1  0  0  0  0
 16 13  1  6  0  0  0
 16 17  1  0  0  0  0
 18 21  2  0  0  0  0
 18 16  1  0  0  0  0
 19 22  1  0  0  0  0
 19 17  2  0  0  0  0
 20 18  1  0  0  0  0
 21 19  1  0  0  0  0
 22 26  1  0  0  0  0
 23 20  1  0  0  0  0
 23 24  2  0  0  0  0
 24 21  1  0  0  0  0
 25 27  1  0  0  0  0
 25 22  2  0  0  0  0
 27 28  2  0  0  0  0
 28 26  1  0  0  0  0
 28 37  1  0  0  0  0
 29  1  1  0  0  0  0
 30  2  1  0  0  0  0
 31  4  1  0  0  0  0
 33  8  1  0  0  0  0
 34 23  1  0  0  0  0
 35 24  1  0  0  0  0
 36 27  1  0  0  0  0
M  END
$$$$
