scan_sander_basal_param/min_pdbs/min_pdb_C306_000.pdb
 OpenBabel10021703403D

 38 43  0  0  0  0  0  0  0  0999 V2000
   -0.3260    0.1730    0.4770 C   0  0  0  0  0  0  0  0  0  0  0  0
    0.6130    0.4600    1.4780 C   0  0  0  0  0  0  0  0  0  0  0  0
   -0.4700    1.0400   -0.6160 C   0  0  0  0  0  0  0  0  0  0  0  0
    1.4030    1.6180    1.3880 C   0  0  0  0  0  0  0  0  0  0  0  0
    0.3210    2.1970   -0.7030 C   0  0  0  0  0  0  0  0  0  0  0  0
    1.2630    2.5200    0.3050 C   0  0  0  0  0  0  0  0  0  0  0  0
    2.1430    3.7280    0.2090 C   0  0  0  0  0  0  0  0  0  0  0  0
    3.5180    3.6380    0.5280 C   0  0  0  0  0  0  0  0  0  0  0  0
    1.7040    4.9950   -0.2450 C   0  0  0  0  0  0  0  0  0  0  0  0
    4.3830    4.6690    0.4350 N   0  0  0  0  0  0  0  0  0  0  0  0
    0.4310    5.2810   -0.5880 N   0  0  0  0  0  0  0  0  0  0  0  0
    2.5890    6.0640   -0.3390 C   0  0  0  0  0  0  0  0  0  0  0  0
    3.9480    5.8810    0.0160 C   0  0  0  0  0  0  0  0  0  0  0  0
    0.4470    6.8590   -1.0180 S   0  0  0  0  0  0  0  0  0  0  0  0
    2.0250    7.2110   -0.7800 N   0  0  0  0  0  0  0  0  0  0  0  0
    4.9730    6.9430   -0.0550 C   0  0  0  0  0  0  0  0  0  0  0  0
    4.7360    8.2220   -0.3150 N   0  0  0  0  0  0  0  0  0  0  0  0
    6.6640    6.5540    0.2150 B   0  0  0  0  0  0  0  0  0  0  0  0
    5.8890    8.9740   -0.3160 C   0  0  0  0  0  0  0  0  0  0  0  0
    7.0220    8.2390   -0.0500 C   0  0  0  0  0  0  0  0  0  0  0  0
    8.3640    8.7730    0.0100 C   0  0  0  0  0  0  0  0  0  0  0  0
    9.7980    7.7770    0.3600 C   0  0  0  0  0  0  0  0  0  0  0  0
    8.7650   10.0780   -0.1810 C   0  0  0  0  0  0  0  0  0  0  0  0
   10.8970    9.1620    0.2360 C   0  0  0  0  0  0  0  0  0  0  0  0
    7.8630   11.5240   -0.5500 S   0  0  0  0  0  0  0  0  0  0  0  0
   10.1350   10.2550   -0.0520 C   0  0  0  0  0  0  0  0  0  0  0  0
    9.4160   12.4110   -0.5300 C   0  0  0  0  0  0  0  0  0  0  0  0
   10.5140   11.6080   -0.2550 C   0  0  0  0  0  0  0  0  0  0  0  0
   -0.9380   -0.7230    0.5450 H   0  0  0  0  0  0  0  0  0  0  0  0
    0.7290   -0.2130    2.3230 H   0  0  0  0  0  0  0  0  0  0  0  0
   -1.1900    0.8150   -1.3980 H   0  0  0  0  0  0  0  0  0  0  0  0
    2.1220    1.8280    2.1740 H   0  0  0  0  0  0  0  0  0  0  0  0
    0.2090    2.8470   -1.5650 H   0  0  0  0  0  0  0  0  0  0  0  0
    3.9470    2.6930    0.8590 H   0  0  0  0  0  0  0  0  0  0  0  0
    5.7950   10.0270   -0.5190 H   0  0  0  0  0  0  0  0  0  0  0  0
   11.9640    9.0660    0.3790 H   0  0  0  0  0  0  0  0  0  0  0  0
    9.4070   13.4750   -0.7250 H   0  0  0  0  0  0  0  0  0  0  0  0
   11.5390   11.9590   -0.1990 H   0  0  0  0  0  0  0  0  0  0  0  0
  1 29  1  0  0  0  0
  1  2  2  0  0  0  0
  2 30  1  0  0  0  0
  3  1  1  0  0  0  0
  4  2  1  0  0  0  0
  4 32  1  0  0  0  0
  5  3  2  0  0  0  0
  5  6  1  0  0  0  0
  6  4  2  0  0  0  0
  7  6  1  0  0  0  0
  7  8  2  0  0  0  0
  8 34  1  0  0  0  0
  9  7  1  0  0  0  0
 10  8  1  0  0  0  0
 11  9  2  0  0  0  0
 12  9  1  0  0  0  0
 12 13  1  0  0  0  0
 13 10  2  0  0  0  0
 14 15  1  0  0  0  0
 14 11  1  0  0  0  0
 15 12  2  0  0  0  0
 16 13  1  0  0  0  0
 16 18  1  0  0  0  0
 17 16  2  0  0  0  0
 19 17  1  0  0  0  0
 19 20  1  0  0  0  0
 20 21  1  0  0  0  0
 20 18  2  0  0  0  0
 21 22  1  0  0  0  0
 23 26  1  0  0  0  0
 23 21  2  0  0  0  0
 24 22  2  0  0  0  0
 24 36  1  0  0  0  0
 25 27  2  0  0  0  0
 25 23  1  0  0  0  0
 26 24  1  0  0  0  0
 27 28  1  0  0  0  0
 28 38  1  0  0  0  0
 28 26  2  0  0  0  0
 31  3  1  0  0  0  0
 33  5  1  0  0  0  0
 35 19  1  0  0  0  0
 37 27  1  0  0  0  0
M  END
$$$$
scan_sander_basal_param/min_pdbs/min_pdb_C306_015.pdb
 OpenBabel10021703403D

 38 43  0  0  0  0  0  0  0  0999 V2000
   -0.3530    0.2150    0.6170 C   0  0  0  0  0  0  0  0  0  0  0  0
    0.5710    0.5510    1.6180 C   0  0  0  0  0  0  0  0  0  0  0  0
   -0.4710    1.0210   -0.5240 C   0  0  0  0  0  0  0  0  0  0  0  0
    1.3720    1.6970    1.4770 C   0  0  0  0  0  0  0  0  0  0  0  0
    0.3300    2.1670   -0.6610 C   0  0  0  0  0  0  0  0  0  0  0  0
    1.2570    2.5390    0.3440 C   0  0  0  0  0  0  0  0  0  0  0  0
    2.1490    3.7330    0.1960 C   0  0  0  0  0  0  0  0  0  0  0  0
    3.5170    3.6520    0.5440 C   0  0  0  0  0  0  0  0  0  0  0  0
    1.7270    4.9760   -0.3350 C   0  0  0  0  0  0  0  0  0  0  0  0
    4.3920    4.6700    0.4090 N   0  0  0  0  0  0  0  0  0  0  0  0
    0.4630    5.2520   -0.7150 N   0  0  0  0  0  0  0  0  0  0  0  0
    2.6220    6.0320   -0.4730 C   0  0  0  0  0  0  0  0  0  0  0  0
    3.9740    5.8600   -0.0850 C   0  0  0  0  0  0  0  0  0  0  0  0
    0.4970    6.8030   -1.2310 S   0  0  0  0  0  0  0  0  0  0  0  0
    2.0740    7.1560   -0.9870 N   0  0  0  0  0  0  0  0  0  0  0  0
    5.0080    6.9080   -0.1980 C   0  0  0  0  0  0  0  0  0  0  0  0
    4.7840    8.1730   -0.5340 N   0  0  0  0  0  0  0  0  0  0  0  0
    6.6920    6.5220    0.1230 B   0  0  0  0  0  0  0  0  0  0  0  0
    5.9430    8.9170   -0.5470 C   0  0  0  0  0  0  0  0  0  0  0  0
    7.0600    8.1930   -0.2030 C   0  0  0  0  0  0  0  0  0  0  0  0
    8.3970    8.7350   -0.1450 C   0  0  0  0  0  0  0  0  0  0  0  0
    9.8710    7.7410   -0.1160 C   0  0  0  0  0  0  0  0  0  0  0  0
    8.7530   10.0660   -0.1290 C   0  0  0  0  0  0  0  0  0  0  0  0
   10.9300    9.1640   -0.0800 C   0  0  0  0  0  0  0  0  0  0  0  0
    7.7840   11.5130   -0.0530 S   0  0  0  0  0  0  0  0  0  0  0  0
   10.1240   10.2650   -0.0820 C   0  0  0  0  0  0  0  0  0  0  0  0
    9.3140   12.4400   -0.0070 C   0  0  0  0  0  0  0  0  0  0  0  0
   10.4520   11.6440   -0.0210 C   0  0  0  0  0  0  0  0  0  0  0  0
   -0.9720   -0.6710    0.7240 H   0  0  0  0  0  0  0  0  0  0  0  0
    0.6680   -0.0750    2.5010 H   0  0  0  0  0  0  0  0  0  0  0  0
   -1.1790    0.7580   -1.3050 H   0  0  0  0  0  0  0  0  0  0  0  0
    2.0790    1.9450    2.2630 H   0  0  0  0  0  0  0  0  0  0  0  0
    0.2390    2.7680   -1.5600 H   0  0  0  0  0  0  0  0  0  0  0  0
    3.9320    2.7240    0.9350 H   0  0  0  0  0  0  0  0  0  0  0  0
    5.8740    9.9530   -0.8390 H   0  0  0  0  0  0  0  0  0  0  0  0
   12.0060    9.0810   -0.0430 H   0  0  0  0  0  0  0  0  0  0  0  0
    9.2630   13.5200    0.0390 H   0  0  0  0  0  0  0  0  0  0  0  0
   11.4690   12.0180    0.0200 H   0  0  0  0  0  0  0  0  0  0  0  0
  1 29  1  0  0  0  0
  1  2  2  0  0  0  0
  2 30  1  0  0  0  0
  3  1  1  0  0  0  0
  4  2  1  0  0  0  0
  4 32  1  0  0  0  0
  5  3  2  0  0  0  0
  5  6  1  0  0  0  0
  6  4  2  0  0  0  0
  7  6  1  0  0  0  0
  7  8  2  0  0  0  0
  8 34  1  0  0  0  0
  9  7  1  0  0  0  0
 10  8  1  0  0  0  0
 11  9  2  0  0  0  0
 12  9  1  0  0  0  0
 12 13  1  0  0  0  0
 13 10  2  0  0  0  0
 14 15  1  0  0  0  0
 14 11  1  0  0  0  0
 15 12  2  0  0  0  0
 16 13  1  0  0  0  0
 16 18  1  0  0  0  0
 17 16  2  0  0  0  0
 19 17  1  0  0  0  0
 19 20  1  0  0  0  0
 20 21  1  0  0  0  0
 20 18  2  0  0  0  0
 21 23  2  0  0  0  0
 21 22  1  0  0  0  0
 22 24  2  0  0  0  0
 23 26  1  0  0  0  0
 23 25  1  0  0  0  0
 24 36  1  0  0  0  0
 25 27  2  0  0  0  0
 26 24  1  0  0  0  0
 26 28  2  0  0  0  0
 27 37  1  0  0  0  0
 28 27  1  0  0  0  0
 28 38  1  0  0  0  0
 31  3  1  0  0  0  0
 33  5  1  0  0  0  0
 35 19  1  0  0  0  0
M  END
$$$$
scan_sander_basal_param/min_pdbs/min_pdb_C306_030.pdb
 OpenBabel10021703403D

 38 43  0  0  0  0  0  0  0  0999 V2000
   -0.3780    0.2740    0.7530 C   0  0  0  0  0  0  0  0  0  0  0  0
    0.5130    0.6720    1.7610 C   0  0  0  0  0  0  0  0  0  0  0  0
   -0.4510    1.0040   -0.4430 C   0  0  0  0  0  0  0  0  0  0  0  0
    1.3260    1.8010    1.5730 C   0  0  0  0  0  0  0  0  0  0  0  0
    0.3630    2.1330   -0.6270 C   0  0  0  0  0  0  0  0  0  0  0  0
    1.2570    2.5660    0.3830 C   0  0  0  0  0  0  0  0  0  0  0  0
    2.1620    3.7440    0.1880 C   0  0  0  0  0  0  0  0  0  0  0  0
    3.5170    3.6790    0.5870 C   0  0  0  0  0  0  0  0  0  0  0  0
    1.7690    4.9510   -0.4390 C   0  0  0  0  0  0  0  0  0  0  0  0
    4.4030    4.6810    0.4150 N   0  0  0  0  0  0  0  0  0  0  0  0
    0.5200    5.2070   -0.8810 N   0  0  0  0  0  0  0  0  0  0  0  0
    2.6750    5.9900   -0.6160 C   0  0  0  0  0  0  0  0  0  0  0  0
    4.0120    5.8380   -0.1710 C   0  0  0  0  0  0  0  0  0  0  0  0
    0.5840    6.7200   -1.4980 S   0  0  0  0  0  0  0  0  0  0  0  0
    2.1540    7.0810   -1.2220 N   0  0  0  0  0  0  0  0  0  0  0  0
    5.0580    6.8700   -0.3170 C   0  0  0  0  0  0  0  0  0  0  0  0
    4.8530    8.1120   -0.7440 N   0  0  0  0  0  0  0  0  0  0  0  0
    6.7280    6.4950    0.0890 B   0  0  0  0  0  0  0  0  0  0  0  0
    6.0180    8.8460   -0.7660 C   0  0  0  0  0  0  0  0  0  0  0  0
    7.1120    8.1380   -0.3340 C   0  0  0  0  0  0  0  0  0  0  0  0
    8.4350    8.7020   -0.2810 C   0  0  0  0  0  0  0  0  0  0  0  0
    9.9450    7.7980   -0.5310 C   0  0  0  0  0  0  0  0  0  0  0  0
    8.7300   10.0270   -0.0690 C   0  0  0  0  0  0  0  0  0  0  0  0
   10.9380    9.2560   -0.3260 C   0  0  0  0  0  0  0  0  0  0  0  0
    7.6900   11.3670    0.3280 S   0  0  0  0  0  0  0  0  0  0  0  0
   10.0880   10.2950   -0.0830 C   0  0  0  0  0  0  0  0  0  0  0  0
    9.1720   12.3680    0.4250 C   0  0  0  0  0  0  0  0  0  0  0  0
   10.3470   11.6620    0.1940 C   0  0  0  0  0  0  0  0  0  0  0  0
   -1.0080   -0.6000    0.8970 H   0  0  0  0  0  0  0  0  0  0  0  0
    0.5740    0.1050    2.6870 H   0  0  0  0  0  0  0  0  0  0  0  0
   -1.1340    0.6920   -1.2280 H   0  0  0  0  0  0  0  0  0  0  0  0
    2.0070    2.0980    2.3650 H   0  0  0  0  0  0  0  0  0  0  0  0
    0.3070    2.6740   -1.5660 H   0  0  0  0  0  0  0  0  0  0  0  0
    3.9120    2.7770    1.0540 H   0  0  0  0  0  0  0  0  0  0  0  0
    5.9840    9.8650   -1.1270 H   0  0  0  0  0  0  0  0  0  0  0  0
   12.0170    9.2300   -0.3790 H   0  0  0  0  0  0  0  0  0  0  0  0
    9.0700   13.4190    0.6620 H   0  0  0  0  0  0  0  0  0  0  0  0
   11.3430   12.0890    0.2280 H   0  0  0  0  0  0  0  0  0  0  0  0
  1 29  1  0  0  0  0
  1  2  2  0  0  0  0
  2 30  1  0  0  0  0
  3  1  1  0  0  0  0
  4  2  1  0  0  0  0
  4 32  1  0  0  0  0
  5  3  2  0  0  0  0
  5  6  1  0  0  0  0
  6  4  2  0  0  0  0
  7  6  1  0  0  0  0
  7  8  2  0  0  0  0
  8 34  1  0  0  0  0
  9  7  1  0  0  0  0
 10  8  1  0  0  0  0
 11  9  2  0  0  0  0
 12  9  1  0  0  0  0
 12 13  1  0  0  0  0
 13 10  2  0  0  0  0
 14 15  1  0  0  0  0
 14 11  1  0  0  0  0
 15 12  2  0  0  0  0
 16 13  1  0  0  0  0
 16 18  1  0  0  0  0
 17 16  2  0  0  0  0
 19 17  1  0  0  0  0
 19 20  1  0  0  0  0
 20 21  1  0  0  0  0
 20 18  2  0  0  0  0
 21 23  2  0  0  0  0
 22 24  2  0  0  0  0
 22 21  1  0  0  0  0
 23 25  1  0  0  0  0
 24 26  1  0  0  0  0
 25 27  2  0  0  0  0
 26 23  1  0  0  0  0
 26 28  2  0  0  0  0
 27 37  1  0  0  0  0
 28 38  1  0  0  0  0
 28 27  1  0  0  0  0
 31  3  1  0  0  0  0
 33  5  1  0  0  0  0
 35 19  1  0  0  0  0
 36 24  1  0  0  0  0
M  END
$$$$
scan_sander_basal_param/min_pdbs/min_pdb_C306_045.pdb
 OpenBabel10021703403D

 38 43  0  0  0  0  0  0  0  0999 V2000
   -0.4210    0.3750    0.9670 C   0  0  0  0  0  0  0  0  0  0  0  0
    0.3940    0.8880    1.9870 C   0  0  0  0  0  0  0  0  0  0  0  0
   -0.4000    0.9630   -0.3070 C   0  0  0  0  0  0  0  0  0  0  0  0
    1.2240    1.9920    1.7330 C   0  0  0  0  0  0  0  0  0  0  0  0
    0.4310    2.0670   -0.5570 C   0  0  0  0  0  0  0  0  0  0  0  0
    1.2490    2.6170    0.4610 C   0  0  0  0  0  0  0  0  0  0  0  0
    2.1710    3.7670    0.2020 C   0  0  0  0  0  0  0  0  0  0  0  0
    3.4920    3.7540    0.7070 C   0  0  0  0  0  0  0  0  0  0  0  0
    1.8320    4.8930   -0.5870 C   0  0  0  0  0  0  0  0  0  0  0  0
    4.3940    4.7330    0.4880 N   0  0  0  0  0  0  0  0  0  0  0  0
    0.6210    5.0920   -1.1470 N   0  0  0  0  0  0  0  0  0  0  0  0
    2.7540    5.9090   -0.8130 C   0  0  0  0  0  0  0  0  0  0  0  0
    4.0530    5.8130   -0.2540 C   0  0  0  0  0  0  0  0  0  0  0  0
    0.7380    6.5250   -1.9260 S   0  0  0  0  0  0  0  0  0  0  0  0
    2.2850    6.9210   -1.5770 N   0  0  0  0  0  0  0  0  0  0  0  0
    5.1120    6.8260   -0.4400 C   0  0  0  0  0  0  0  0  0  0  0  0
    4.9450    8.0100   -1.0220 N   0  0  0  0  0  0  0  0  0  0  0  0
    6.7460    6.5030    0.1310 B   0  0  0  0  0  0  0  0  0  0  0  0
    6.1130    8.7380   -1.0470 C   0  0  0  0  0  0  0  0  0  0  0  0
    7.1660    8.0820   -0.4610 C   0  0  0  0  0  0  0  0  0  0  0  0
    8.4730    8.6710   -0.4000 C   0  0  0  0  0  0  0  0  0  0  0  0
   10.0100    7.8780   -0.8050 C   0  0  0  0  0  0  0  0  0  0  0  0
    8.7090    9.9720   -0.0420 C   0  0  0  0  0  0  0  0  0  0  0  0
   10.9390    9.3560   -0.4590 C   0  0  0  0  0  0  0  0  0  0  0  0
    7.6020   11.1980    0.5030 S   0  0  0  0  0  0  0  0  0  0  0  0
   10.0480   10.3160   -0.0720 C   0  0  0  0  0  0  0  0  0  0  0  0
    9.0320   12.2670    0.6720 C   0  0  0  0  0  0  0  0  0  0  0  0
   10.2390   11.6600    0.3390 C   0  0  0  0  0  0  0  0  0  0  0  0
   -1.0630   -0.4790    1.1610 H   0  0  0  0  0  0  0  0  0  0  0  0
    0.3830    0.4320    2.9730 H   0  0  0  0  0  0  0  0  0  0  0  0
   -1.0230    0.5610   -1.1010 H   0  0  0  0  0  0  0  0  0  0  0  0
    1.8450    2.3800    2.5350 H   0  0  0  0  0  0  0  0  0  0  0  0
    0.4490    2.4970   -1.5530 H   0  0  0  0  0  0  0  0  0  0  0  0
    3.8460    2.9130    1.3020 H   0  0  0  0  0  0  0  0  0  0  0  0
    6.1220    9.7170   -1.5090 H   0  0  0  0  0  0  0  0  0  0  0  0
   12.0150    9.3940   -0.5530 H   0  0  0  0  0  0  0  0  0  0  0  0
    8.8770   13.2810    1.0180 H   0  0  0  0  0  0  0  0  0  0  0  0
   11.2090   12.1410    0.3900 H   0  0  0  0  0  0  0  0  0  0  0  0
  1 29  1  0  0  0  0
  1  2  2  0  0  0  0
  2 30  1  0  0  0  0
  3  1  1  0  0  0  0
  4  2  1  0  0  0  0
  4 32  1  0  0  0  0
  5  3  2  0  0  0  0
  5  6  1  0  0  0  0
  6  4  2  0  0  0  0
  7  6  1  0  0  0  0
  7  8  2  0  0  0  0
  8 34  1  0  0  0  0
  9  7  1  0  0  0  0
 10  8  1  0  0  0  0
 11  9  2  0  0  0  0
 12  9  1  0  0  0  0
 12 13  1  0  0  0  0
 13 10  2  0  0  0  0
 14 15  1  0  0  0  0
 14 11  1  0  0  0  0
 15 12  2  0  0  0  0
 16 13  1  0  0  0  0
 16 18  1  0  0  0  0
 17 16  2  0  0  0  0
 19 17  1  0  0  0  0
 19 20  1  0  0  0  0
 20 21  1  0  0  0  0
 20 18  2  0  0  0  0
 21 23  2  0  0  0  0
 22 24  2  0  0  0  0
 22 21  1  0  0  0  0
 23 25  1  0  0  0  0
 24 26  1  0  0  0  0
 25 27  2  0  0  0  0
 26 23  1  0  0  0  0
 26 28  2  0  0  0  0
 27 37  1  0  0  0  0
 28 38  1  0  0  0  0
 28 27  1  0  0  0  0
 31  3  1  0  0  0  0
 33  5  1  0  0  0  0
 35 19  1  0  0  0  0
 36 24  1  0  0  0  0
M  END
$$$$
scan_sander_basal_param/min_pdbs/min_pdb_C306_060.pdb
 OpenBabel10021703403D

 38 43  0  0  0  0  0  0  0  0999 V2000
   -0.3690    0.3750    0.9950 C   0  0  0  0  0  0  0  0  0  0  0  0
    0.4410    0.9100    2.0070 C   0  0  0  0  0  0  0  0  0  0  0  0
   -0.3540    0.9450   -0.2860 C   0  0  0  0  0  0  0  0  0  0  0  0
    1.2610    2.0180    1.7380 C   0  0  0  0  0  0  0  0  0  0  0  0
    0.4660    2.0530   -0.5520 C   0  0  0  0  0  0  0  0  0  0  0  0
    1.2790    2.6240    0.4580 C   0  0  0  0  0  0  0  0  0  0  0  0
    2.1900    3.7800    0.1810 C   0  0  0  0  0  0  0  0  0  0  0  0
    3.5120    3.7870    0.6850 C   0  0  0  0  0  0  0  0  0  0  0  0
    1.8390    4.8910   -0.6240 C   0  0  0  0  0  0  0  0  0  0  0  0
    4.4040    4.7690    0.4490 N   0  0  0  0  0  0  0  0  0  0  0  0
    0.6260    5.0710   -1.1850 N   0  0  0  0  0  0  0  0  0  0  0  0
    2.7520    5.9110   -0.8680 C   0  0  0  0  0  0  0  0  0  0  0  0
    4.0540    5.8350   -0.3110 C   0  0  0  0  0  0  0  0  0  0  0  0
    0.7290    6.4930   -1.9860 S   0  0  0  0  0  0  0  0  0  0  0  0
    2.2730    6.9070   -1.6460 N   0  0  0  0  0  0  0  0  0  0  0  0
    5.1050    6.8520   -0.5180 C   0  0  0  0  0  0  0  0  0  0  0  0
    4.9270    8.0240   -1.1190 N   0  0  0  0  0  0  0  0  0  0  0  0
    6.7440    6.5490    0.0550 B   0  0  0  0  0  0  0  0  0  0  0  0
    6.0910    8.7560   -1.1700 C   0  0  0  0  0  0  0  0  0  0  0  0
    7.1500    8.1120   -0.5840 C   0  0  0  0  0  0  0  0  0  0  0  0
    8.4460    8.7200   -0.5590 C   0  0  0  0  0  0  0  0  0  0  0  0
    9.9410    8.1030   -1.2910 C   0  0  0  0  0  0  0  0  0  0  0  0
    8.6900    9.9230    0.0430 C   0  0  0  0  0  0  0  0  0  0  0  0
   10.8680    9.5210   -0.7400 C   0  0  0  0  0  0  0  0  0  0  0  0
    7.6070   10.9580    0.9210 S   0  0  0  0  0  0  0  0  0  0  0  0
   10.0040   10.3350   -0.0630 C   0  0  0  0  0  0  0  0  0  0  0  0
    9.0150   12.0430    1.1600 C   0  0  0  0  0  0  0  0  0  0  0  0
   10.1970   11.5800    0.5890 C   0  0  0  0  0  0  0  0  0  0  0  0
   -1.0030   -0.4830    1.2020 H   0  0  0  0  0  0  0  0  0  0  0  0
    0.4340    0.4670    3.0000 H   0  0  0  0  0  0  0  0  0  0  0  0
   -0.9740    0.5260   -1.0750 H   0  0  0  0  0  0  0  0  0  0  0  0
    1.8780    2.4230    2.5340 H   0  0  0  0  0  0  0  0  0  0  0  0
    0.4790    2.4690   -1.5550 H   0  0  0  0  0  0  0  0  0  0  0  0
    3.8740    2.9580    1.2930 H   0  0  0  0  0  0  0  0  0  0  0  0
    6.0950    9.7310   -1.6420 H   0  0  0  0  0  0  0  0  0  0  0  0
   11.9220    9.6340   -0.9460 H   0  0  0  0  0  0  0  0  0  0  0  0
    8.8680   12.9600    1.7160 H   0  0  0  0  0  0  0  0  0  0  0  0
   11.1500   12.0950    0.6320 H   0  0  0  0  0  0  0  0  0  0  0  0
  1 29  1  0  0  0  0
  1  2  2  0  0  0  0
  2 30  1  0  0  0  0
  3  1  1  0  0  0  0
  4  2  1  0  0  0  0
  4 32  1  0  0  0  0
  5  3  2  0  0  0  0
  5  6  1  0  0  0  0
  6  4  2  0  0  0  0
  7  6  1  0  0  0  0
  7  8  2  0  0  0  0
  8 34  1  0  0  0  0
  9  7  1  0  0  0  0
 10  8  1  0  0  0  0
 11  9  2  0  0  0  0
 12  9  1  0  0  0  0
 12 13  1  0  0  0  0
 13 10  2  0  0  0  0
 14 15  1  0  0  0  0
 14 11  1  0  0  0  0
 15 12  2  0  0  0  0
 16 13  1  0  0  0  0
 16 18  1  0  0  0  0
 17 16  2  0  0  0  0
 19 17  1  0  0  0  0
 19 20  1  0  0  0  0
 20 21  1  0  0  0  0
 20 18  2  0  0  0  0
 21 23  2  0  0  0  0
 22 24  2  0  0  0  0
 22 21  1  0  0  0  0
 23 25  1  0  0  0  0
 24 26  1  0  0  0  0
 25 27  2  0  0  0  0
 26 23  1  0  0  0  0
 26 28  2  0  0  0  0
 27 37  1  0  0  0  0
 28 38  1  0  0  0  0
 28 27  1  0  0  0  0
 31  3  1  0  0  0  0
 33  5  1  0  0  0  0
 35 19  1  0  0  0  0
 36 24  1  0  0  0  0
M  END
$$$$
scan_sander_basal_param/min_pdbs/min_pdb_C306_075.pdb
 OpenBabel10021703403D

 38 43  0  0  0  0  0  0  0  0999 V2000
   -0.3270    0.4150    1.1180 C   0  0  0  0  0  0  0  0  0  0  0  0
    0.4570    1.0150    2.1150 C   0  0  0  0  0  0  0  0  0  0  0  0
   -0.2950    0.9150   -0.1920 C   0  0  0  0  0  0  0  0  0  0  0  0
    1.2680    2.1180    1.8010 C   0  0  0  0  0  0  0  0  0  0  0  0
    0.5170    2.0180   -0.5030 C   0  0  0  0  0  0  0  0  0  0  0  0
    1.3030    2.6550    0.4900 C   0  0  0  0  0  0  0  0  0  0  0  0
    2.2050    3.8060    0.1680 C   0  0  0  0  0  0  0  0  0  0  0  0
    3.5170    3.8570    0.6960 C   0  0  0  0  0  0  0  0  0  0  0  0
    1.8570    4.8670   -0.7030 C   0  0  0  0  0  0  0  0  0  0  0  0
    4.4010    4.8380    0.4240 N   0  0  0  0  0  0  0  0  0  0  0  0
    0.6520    5.0000   -1.2950 N   0  0  0  0  0  0  0  0  0  0  0  0
    2.7610    5.8850   -0.9840 C   0  0  0  0  0  0  0  0  0  0  0  0
    4.0520    5.8560   -0.3990 C   0  0  0  0  0  0  0  0  0  0  0  0
    0.7540    6.3770   -2.1700 S   0  0  0  0  0  0  0  0  0  0  0  0
    2.2850    6.8300   -1.8240 N   0  0  0  0  0  0  0  0  0  0  0  0
    5.0940    6.8750   -0.6390 C   0  0  0  0  0  0  0  0  0  0  0  0
    4.9120    8.0120   -1.3060 N   0  0  0  0  0  0  0  0  0  0  0  0
    6.7250    6.6270   -0.0190 B   0  0  0  0  0  0  0  0  0  0  0  0
    6.0680    8.7570   -1.3740 C   0  0  0  0  0  0  0  0  0  0  0  0
    7.1220    8.1560   -0.7390 C   0  0  0  0  0  0  0  0  0  0  0  0
    8.4030    8.7930   -0.7180 C   0  0  0  0  0  0  0  0  0  0  0  0
    9.8450    8.3730   -1.6630 C   0  0  0  0  0  0  0  0  0  0  0  0
    8.6710    9.8660    0.0820 C   0  0  0  0  0  0  0  0  0  0  0  0
   10.7840    9.6960   -0.9270 C   0  0  0  0  0  0  0  0  0  0  0  0
    7.6320   10.6850    1.2060 S   0  0  0  0  0  0  0  0  0  0  0  0
    9.9610   10.3390   -0.0450 C   0  0  0  0  0  0  0  0  0  0  0  0
    9.0310   11.7580    1.5400 C   0  0  0  0  0  0  0  0  0  0  0  0
   10.1760   11.4510    0.8090 C   0  0  0  0  0  0  0  0  0  0  0  0
   -0.9540   -0.4380    1.3590 H   0  0  0  0  0  0  0  0  0  0  0  0
    0.4360    0.6270    3.1290 H   0  0  0  0  0  0  0  0  0  0  0  0
   -0.8930    0.4460   -0.9680 H   0  0  0  0  0  0  0  0  0  0  0  0
    1.8640    2.5740    2.5850 H   0  0  0  0  0  0  0  0  0  0  0  0
    0.5450    2.3790   -1.5260 H   0  0  0  0  0  0  0  0  0  0  0  0
    3.8770    3.0670    1.3540 H   0  0  0  0  0  0  0  0  0  0  0  0
    6.0680    9.7080   -1.8920 H   0  0  0  0  0  0  0  0  0  0  0  0
   11.8150    9.8850   -1.1900 H   0  0  0  0  0  0  0  0  0  0  0  0
    8.9070   12.5530    2.2640 H   0  0  0  0  0  0  0  0  0  0  0  0
   11.1170   11.9850    0.8760 H   0  0  0  0  0  0  0  0  0  0  0  0
  1 29  1  0  0  0  0
  1  2  2  0  0  0  0
  2 30  1  0  0  0  0
  3  1  1  0  0  0  0
  4  2  1  0  0  0  0
  4 32  1  0  0  0  0
  5  3  2  0  0  0  0
  5  6  1  0  0  0  0
  6  4  2  0  0  0  0
  7  6  1  0  0  0  0
  7  8  2  0  0  0  0
  8 34  1  0  0  0  0
  9  7  1  0  0  0  0
 10  8  1  0  0  0  0
 11  9  2  0  0  0  0
 12  9  1  0  0  0  0
 12 13  1  0  0  0  0
 13 10  2  0  0  0  0
 14 15  1  0  0  0  0
 14 11  1  0  0  0  0
 15 12  2  0  0  0  0
 16 13  1  0  0  0  0
 16 18  1  0  0  0  0
 17 16  2  0  0  0  0
 19 17  1  0  0  0  0
 19 20  1  0  0  0  0
 20 21  1  0  0  0  0
 20 18  2  0  0  0  0
 21 23  2  0  0  0  0
 22 24  2  0  0  0  0
 22 21  1  0  0  0  0
 23 25  1  0  0  0  0
 24 26  1  0  0  0  0
 25 27  2  0  0  0  0
 26 23  1  0  0  0  0
 26 28  2  0  0  0  0
 27 37  1  0  0  0  0
 28 38  1  0  0  0  0
 28 27  1  0  0  0  0
 31  3  1  0  0  0  0
 33  5  1  0  0  0  0
 35 19  1  0  0  0  0
 36 24  1  0  0  0  0
M  END
$$$$
scan_sander_basal_param/min_pdbs/min_pdb_C306_090.pdb
 OpenBabel10021703403D

 38 43  0  0  0  0  0  0  0  0999 V2000
   -0.2750    0.4540    1.2430 C   0  0  0  0  0  0  0  0  0  0  0  0
    0.4570    1.1400    2.2240 C   0  0  0  0  0  0  0  0  0  0  0  0
   -0.2020    0.8630   -0.0970 C   0  0  0  0  0  0  0  0  0  0  0  0
    1.2570    2.2360    1.8630 C   0  0  0  0  0  0  0  0  0  0  0  0
    0.5980    1.9600   -0.4540 C   0  0  0  0  0  0  0  0  0  0  0  0
    1.3330    2.6810    0.5200 C   0  0  0  0  0  0  0  0  0  0  0  0
    2.2230    3.8270    0.1520 C   0  0  0  0  0  0  0  0  0  0  0  0
    3.5120    3.9450    0.7240 C   0  0  0  0  0  0  0  0  0  0  0  0
    1.8870    4.8180   -0.8020 C   0  0  0  0  0  0  0  0  0  0  0  0
    4.3860    4.9250    0.4190 N   0  0  0  0  0  0  0  0  0  0  0  0
    0.7050    4.8820   -1.4480 N   0  0  0  0  0  0  0  0  0  0  0  0
    2.7810    5.8350   -1.1190 C   0  0  0  0  0  0  0  0  0  0  0  0
    4.0480    5.8770   -0.4850 C   0  0  0  0  0  0  0  0  0  0  0  0
    0.8120    6.1980   -2.4110 S   0  0  0  0  0  0  0  0  0  0  0  0
    2.3190    6.7090   -2.0400 N   0  0  0  0  0  0  0  0  0  0  0  0
    5.0770    6.9020   -0.7540 C   0  0  0  0  0  0  0  0  0  0  0  0
    4.8970    7.9860   -1.5040 N   0  0  0  0  0  0  0  0  0  0  0  0
    6.6870    6.7350   -0.0570 B   0  0  0  0  0  0  0  0  0  0  0  0
    6.0380    8.7540   -1.5770 C   0  0  0  0  0  0  0  0  0  0  0  0
    7.0790    8.2220   -0.8640 C   0  0  0  0  0  0  0  0  0  0  0  0
    8.3390    8.8950   -0.8310 C   0  0  0  0  0  0  0  0  0  0  0  0
    9.7180    8.6920   -1.9290 C   0  0  0  0  0  0  0  0  0  0  0  0
    8.6390    9.8260    0.1210 C   0  0  0  0  0  0  0  0  0  0  0  0
   10.6760    9.9060   -1.0440 C   0  0  0  0  0  0  0  0  0  0  0  0
    7.6620   10.4080    1.4320 S   0  0  0  0  0  0  0  0  0  0  0  0
    9.9040   10.3620   -0.0110 C   0  0  0  0  0  0  0  0  0  0  0  0
    9.0560   11.4600    1.8500 C   0  0  0  0  0  0  0  0  0  0  0  0
   10.1520   11.3210    1.0030 C   0  0  0  0  0  0  0  0  0  0  0  0
   -0.8940   -0.3950    1.5200 H   0  0  0  0  0  0  0  0  0  0  0  0
    0.4050    0.8220    3.2610 H   0  0  0  0  0  0  0  0  0  0  0  0
   -0.7610    0.3280   -0.8600 H   0  0  0  0  0  0  0  0  0  0  0  0
    1.8140    2.7580    2.6350 H   0  0  0  0  0  0  0  0  0  0  0  0
    0.6580    2.2500   -1.4980 H   0  0  0  0  0  0  0  0  0  0  0  0
    3.8630    3.2110    1.4480 H   0  0  0  0  0  0  0  0  0  0  0  0
    6.0370    9.6690   -2.1550 H   0  0  0  0  0  0  0  0  0  0  0  0
   11.6800   10.1750   -1.3400 H   0  0  0  0  0  0  0  0  0  0  0  0
    8.9630   12.1160    2.7050 H   0  0  0  0  0  0  0  0  0  0  0  0
   11.0810   11.8720    1.0970 H   0  0  0  0  0  0  0  0  0  0  0  0
  1 29  1  0  0  0  0
  1  2  2  0  0  0  0
  2 30  1  0  0  0  0
  3  1  1  0  0  0  0
  4  2  1  0  0  0  0
  4 32  1  0  0  0  0
  5  3  2  0  0  0  0
  5  6  1  0  0  0  0
  6  4  2  0  0  0  0
  7  6  1  0  0  0  0
  7  8  2  0  0  0  0
  8 34  1  0  0  0  0
  9  7  1  0  0  0  0
 10  8  1  0  0  0  0
 11  9  2  0  0  0  0
 12  9  1  0  0  0  0
 12 13  1  0  0  0  0
 13 10  2  0  0  0  0
 14 15  1  0  0  0  0
 14 11  1  0  0  0  0
 15 12  2  0  0  0  0
 16 13  1  0  0  0  0
 16 18  1  0  0  0  0
 17 16  2  0  0  0  0
 19 17  1  0  0  0  0
 19 20  1  0  0  0  0
 20 21  1  0  0  0  0
 20 18  2  0  0  0  0
 21 23  2  0  0  0  0
 22 24  2  0  0  0  0
 22 21  1  0  0  0  0
 23 25  1  0  0  0  0
 24 26  1  0  0  0  0
 25 27  2  0  0  0  0
 26 23  1  0  0  0  0
 26 28  2  0  0  0  0
 27 37  1  0  0  0  0
 28 38  1  0  0  0  0
 28 27  1  0  0  0  0
 31  3  1  0  0  0  0
 33  5  1  0  0  0  0
 35 19  1  0  0  0  0
 36 24  1  0  0  0  0
M  END
$$$$
scan_sander_basal_param/min_pdbs/min_pdb_C306_105.pdb
 OpenBabel10021703403D

 38 43  0  0  0  0  0  0  0  0999 V2000
    0.0500    0.1450   -0.5920 C   0  0  0  0  0  0  0  0  0  0  0  0
    1.4520    0.1240   -0.5680 C   0  0  0  0  0  0  0  0  0  0  0  0
   -0.6340    1.3530   -0.3890 C   0  0  0  0  0  0  0  0  0  0  0  0
    2.1680    1.3090   -0.3340 C   0  0  0  0  0  0  0  0  0  0  0  0
    0.0840    2.5360   -0.1560 C   0  0  0  0  0  0  0  0  0  0  0  0
    1.5010    2.5380   -0.1060 C   0  0  0  0  0  0  0  0  0  0  0  0
    2.2850    3.7970    0.1010 C   0  0  0  0  0  0  0  0  0  0  0  0
    3.4330    4.0620   -0.6820 C   0  0  0  0  0  0  0  0  0  0  0  0
    1.9260    4.8130    1.0200 C   0  0  0  0  0  0  0  0  0  0  0  0
    4.1730    5.1840   -0.5790 N   0  0  0  0  0  0  0  0  0  0  0  0
    0.8710    4.7420    1.8580 N   0  0  0  0  0  0  0  0  0  0  0  0
    2.6860    5.9710    1.1340 C   0  0  0  0  0  0  0  0  0  0  0  0
    3.8300    6.1420    0.3160 C   0  0  0  0  0  0  0  0  0  0  0  0
    0.9040    6.1370    2.7090 S   0  0  0  0  0  0  0  0  0  0  0  0
    2.2250    6.8450    2.0570 N   0  0  0  0  0  0  0  0  0  0  0  0
    4.7020    7.3340    0.3470 C   0  0  0  0  0  0  0  0  0  0  0  0
    4.6160    8.3210    1.2350 N   0  0  0  0  0  0  0  0  0  0  0  0
    5.9750    7.5220   -0.8560 B   0  0  0  0  0  0  0  0  0  0  0  0
    5.5650    9.2940    1.0130 C   0  0  0  0  0  0  0  0  0  0  0  0
    6.3660    9.0160   -0.0610 C   0  0  0  0  0  0  0  0  0  0  0  0
    7.4070    9.9240   -0.4290 C   0  0  0  0  0  0  0  0  0  0  0  0
    7.2540   11.4920   -1.2460 C   0  0  0  0  0  0  0  0  0  0  0  0
    8.7220    9.6630   -0.1730 C   0  0  0  0  0  0  0  0  0  0  0  0
    9.0170   11.7470   -1.2130 C   0  0  0  0  0  0  0  0  0  0  0  0
    9.4370    8.2880    0.6100 S   0  0  0  0  0  0  0  0  0  0  0  0
    9.5760   10.6590   -0.6020 C   0  0  0  0  0  0  0  0  0  0  0  0
   11.0140    9.0990    0.3400 C   0  0  0  0  0  0  0  0  0  0  0  0
   10.9230   10.3300   -0.3030 C   0  0  0  0  0  0  0  0  0  0  0  0
   -0.5050   -0.7710   -0.7730 H   0  0  0  0  0  0  0  0  0  0  0  0
    1.9840   -0.8100   -0.7290 H   0  0  0  0  0  0  0  0  0  0  0  0
   -1.7200    1.3730   -0.4170 H   0  0  0  0  0  0  0  0  0  0  0  0
    3.2530    1.2740   -0.3140 H   0  0  0  0  0  0  0  0  0  0  0  0
   -0.4610    3.4650   -0.0200 H   0  0  0  0  0  0  0  0  0  0  0  0
    3.7650    3.3460   -1.4330 H   0  0  0  0  0  0  0  0  0  0  0  0
    5.6140   10.1580    1.6640 H   0  0  0  0  0  0  0  0  0  0  0  0
    9.4780   12.6340   -1.6240 H   0  0  0  0  0  0  0  0  0  0  0  0
   11.9120    8.6020    0.6840 H   0  0  0  0  0  0  0  0  0  0  0  0
   11.7660   10.9660   -0.5490 H   0  0  0  0  0  0  0  0  0  0  0  0
  1  2  2  0  0  0  0
  1  3  1  0  0  0  0
  2  4  1  0  0  0  0
  3  5  2  0  0  0  0
  4 32  1  0  0  0  0
  4  6  2  0  0  0  0
  5  6  1  0  0  0  0
  5 33  1  0  0  0  0
  6  7  1  0  0  0  0
  7  9  1  0  0  0  0
  8 10  1  0  0  0  0
  8  7  2  0  0  0  0
  9 12  1  0  0  0  0
  9 11  2  0  0  0  0
 10 13  2  0  0  0  0
 11 14  1  0  0  0  0
 12 15  2  0  0  0  0
 13 16  1  0  0  0  0
 13 12  1  0  0  0  0
 15 14  1  0  0  0  0
 16 17  2  0  0  0  0
 18 20  2  0  0  0  0
 18 16  1  0  0  0  0
 19 17  1  0  0  0  0
 19 35  1  0  0  0  0
 20 19  1  0  0  0  0
 21 23  2  0  0  0  0
 21 20  1  0  0  0  0
 22 24  2  0  0  0  0
 22 21  1  0  0  0  0
 23 25  1  0  0  0  0
 24 26  1  0  0  0  0
 26 28  2  0  0  0  0
 26 23  1  0  0  0  0
 27 25  2  0  0  0  0
 27 37  1  0  0  0  0
 28 27  1  0  0  0  0
 29  1  1  0  0  0  0
 30  2  1  0  0  0  0
 31  3  1  0  0  0  0
 34  8  1  0  0  0  0
 36 24  1  0  0  0  0
 38 28  1  0  0  0  0
M  END
$$$$
scan_sander_basal_param/min_pdbs/min_pdb_C306_120.pdb
 OpenBabel10021703403D

 38 43  0  0  0  0  0  0  0  0999 V2000
    0.1240    0.1170   -0.5750 C   0  0  0  0  0  0  0  0  0  0  0  0
    1.5210    0.1060   -0.4490 C   0  0  0  0  0  0  0  0  0  0  0  0
   -0.5780    1.3270   -0.4740 C   0  0  0  0  0  0  0  0  0  0  0  0
    2.2130    1.3060   -0.2160 C   0  0  0  0  0  0  0  0  0  0  0  0
    0.1180    2.5250   -0.2410 C   0  0  0  0  0  0  0  0  0  0  0  0
    1.5260    2.5380   -0.0900 C   0  0  0  0  0  0  0  0  0  0  0  0
    2.2890    3.8100    0.1190 C   0  0  0  0  0  0  0  0  0  0  0  0
    3.4890    4.0500   -0.5900 C   0  0  0  0  0  0  0  0  0  0  0  0
    1.8600    4.8620    0.9650 C   0  0  0  0  0  0  0  0  0  0  0  0
    4.2150    5.1810   -0.4840 N   0  0  0  0  0  0  0  0  0  0  0  0
    0.7480    4.8200    1.7270 N   0  0  0  0  0  0  0  0  0  0  0  0
    2.6060    6.0300    1.0830 C   0  0  0  0  0  0  0  0  0  0  0  0
    3.8050    6.1730    0.3430 C   0  0  0  0  0  0  0  0  0  0  0  0
    0.7150    6.2510    2.5170 S   0  0  0  0  0  0  0  0  0  0  0  0
    2.0760    6.9390    1.9320 N   0  0  0  0  0  0  0  0  0  0  0  0
    4.6680    7.3720    0.3850 C   0  0  0  0  0  0  0  0  0  0  0  0
    4.5140    8.3960    1.2200 N   0  0  0  0  0  0  0  0  0  0  0  0
    6.0240    7.5170   -0.7310 B   0  0  0  0  0  0  0  0  0  0  0  0
    5.4740    9.3630    1.0270 C   0  0  0  0  0  0  0  0  0  0  0  0
    6.3590    9.0420    0.0320 C   0  0  0  0  0  0  0  0  0  0  0  0
    7.4100    9.9530   -0.3080 C   0  0  0  0  0  0  0  0  0  0  0  0
    7.2590   11.6370   -0.8480 C   0  0  0  0  0  0  0  0  0  0  0  0
    8.7300    9.6140   -0.2160 C   0  0  0  0  0  0  0  0  0  0  0  0
    9.0270   11.8260   -0.9470 C   0  0  0  0  0  0  0  0  0  0  0  0
    9.4530    8.1190    0.2930 S   0  0  0  0  0  0  0  0  0  0  0  0
    9.5870   10.6400   -0.5640 C   0  0  0  0  0  0  0  0  0  0  0  0
   11.0340    8.9150    0.0040 C   0  0  0  0  0  0  0  0  0  0  0  0
   10.9400   10.2310   -0.4390 C   0  0  0  0  0  0  0  0  0  0  0  0
   -0.4130   -0.8100   -0.7550 H   0  0  0  0  0  0  0  0  0  0  0  0
    2.0670   -0.8300   -0.5310 H   0  0  0  0  0  0  0  0  0  0  0  0
   -1.6590    1.3390   -0.5810 H   0  0  0  0  0  0  0  0  0  0  0  0
    3.2940    1.2790   -0.1160 H   0  0  0  0  0  0  0  0  0  0  0  0
   -0.4400    3.4540   -0.1850 H   0  0  0  0  0  0  0  0  0  0  0  0
    3.8770    3.3050   -1.2840 H   0  0  0  0  0  0  0  0  0  0  0  0
    5.4690   10.2560    1.6390 H   0  0  0  0  0  0  0  0  0  0  0  0
    9.4900   12.7530   -1.2550 H   0  0  0  0  0  0  0  0  0  0  0  0
   11.9360    8.3460    0.1890 H   0  0  0  0  0  0  0  0  0  0  0  0
   11.7840   10.8730   -0.6600 H   0  0  0  0  0  0  0  0  0  0  0  0
  1  3  2  0  0  0  0
  1  2  1  0  0  0  0
  2  4  2  0  0  0  0
  3  5  1  0  0  0  0
  4 32  1  0  0  0  0
  4  6  1  0  0  0  0
  5 33  1  0  0  0  0
  5  6  2  0  0  0  0
  6  7  1  0  0  0  0
  7  9  1  0  0  0  0
  8 10  1  0  0  0  0
  8  7  2  0  0  0  0
  9 12  1  0  0  0  0
  9 11  2  0  0  0  0
 10 13  2  0  0  0  0
 11 14  1  0  0  0  0
 12 15  2  0  0  0  0
 13 16  1  0  0  0  0
 13 12  1  0  0  0  0
 15 14  1  0  0  0  0
 16 17  2  0  0  0  0
 18 20  2  0  0  0  0
 18 16  1  0  0  0  0
 19 17  1  0  0  0  0
 19 35  1  0  0  0  0
 20 19  1  0  0  0  0
 21 23  2  0  0  0  0
 21 20  1  0  0  0  0
 22 21  1  0  0  0  0
 23 25  1  0  0  0  0
 24 22  2  0  0  0  0
 24 26  1  0  0  0  0
 26 28  2  0  0  0  0
 26 23  1  0  0  0  0
 27 37  1  0  0  0  0
 27 25  2  0  0  0  0
 28 27  1  0  0  0  0
 29  1  1  0  0  0  0
 30  2  1  0  0  0  0
 31  3  1  0  0  0  0
 34  8  1  0  0  0  0
 36 24  1  0  0  0  0
 38 28  1  0  0  0  0
M  END
$$$$
scan_sander_basal_param/min_pdbs/min_pdb_C306_135.pdb
 OpenBabel10021703403D

 38 43  0  0  0  0  0  0  0  0999 V2000
    0.1810    0.0910   -0.5510 C   0  0  0  0  0  0  0  0  0  0  0  0
    1.5650    0.0900   -0.3210 C   0  0  0  0  0  0  0  0  0  0  0  0
   -0.5260    1.3020   -0.5580 C   0  0  0  0  0  0  0  0  0  0  0  0
    2.2380    1.3010   -0.0910 C   0  0  0  0  0  0  0  0  0  0  0  0
    0.1500    2.5110   -0.3270 C   0  0  0  0  0  0  0  0  0  0  0  0
    1.5440    2.5360   -0.0720 C   0  0  0  0  0  0  0  0  0  0  0  0
    2.2890    3.8190    0.1350 C   0  0  0  0  0  0  0  0  0  0  0  0
    3.5390    4.0300   -0.4910 C   0  0  0  0  0  0  0  0  0  0  0  0
    1.7980    4.9060    0.8990 C   0  0  0  0  0  0  0  0  0  0  0  0
    4.2550    5.1670   -0.3820 N   0  0  0  0  0  0  0  0  0  0  0  0
    0.6320    4.8940    1.5770 N   0  0  0  0  0  0  0  0  0  0  0  0
    2.5330    6.0800    1.0200 C   0  0  0  0  0  0  0  0  0  0  0  0
    3.7850    6.1940    0.3660 C   0  0  0  0  0  0  0  0  0  0  0  0
    0.5400    6.3590    2.2970 S   0  0  0  0  0  0  0  0  0  0  0  0
    1.9420    7.0250    1.7850 N   0  0  0  0  0  0  0  0  0  0  0  0
    4.6420    7.3960    0.4190 C   0  0  0  0  0  0  0  0  0  0  0  0
    4.4270    8.4550    1.1930 N   0  0  0  0  0  0  0  0  0  0  0  0
    6.0770    7.4960   -0.5970 B   0  0  0  0  0  0  0  0  0  0  0  0
    5.4000    9.4150    1.0300 C   0  0  0  0  0  0  0  0  0  0  0  0
    6.3630    9.0530    0.1250 C   0  0  0  0  0  0  0  0  0  0  0  0
    7.4280    9.9630   -0.1800 C   0  0  0  0  0  0  0  0  0  0  0  0
    7.3070   11.7180   -0.4310 C   0  0  0  0  0  0  0  0  0  0  0  0
    8.7400    9.5790   -0.2580 C   0  0  0  0  0  0  0  0  0  0  0  0
    9.0650   11.8710   -0.6630 C   0  0  0  0  0  0  0  0  0  0  0  0
    9.4530    8.0100   -0.0340 S   0  0  0  0  0  0  0  0  0  0  0  0
    9.6050   10.6250   -0.5180 C   0  0  0  0  0  0  0  0  0  0  0  0
   11.0330    8.8020   -0.3380 C   0  0  0  0  0  0  0  0  0  0  0  0
   10.9480   10.1720   -0.5710 C   0  0  0  0  0  0  0  0  0  0  0  0
   -0.3410   -0.8450   -0.7300 H   0  0  0  0  0  0  0  0  0  0  0  0
    2.1150   -0.8470   -0.3190 H   0  0  0  0  0  0  0  0  0  0  0  0
   -1.5960    1.3060   -0.7460 H   0  0  0  0  0  0  0  0  0  0  0  0
    3.3080    1.2830    0.0910 H   0  0  0  0  0  0  0  0  0  0  0  0
   -0.4100    3.4410   -0.3550 H   0  0  0  0  0  0  0  0  0  0  0  0
    3.9780    3.2550   -1.1200 H   0  0  0  0  0  0  0  0  0  0  0  0
    5.3460   10.3350    1.5980 H   0  0  0  0  0  0  0  0  0  0  0  0
    9.5390   12.8220   -0.8610 H   0  0  0  0  0  0  0  0  0  0  0  0
   11.9260    8.1920   -0.3160 H   0  0  0  0  0  0  0  0  0  0  0  0
   11.7950   10.8210   -0.7620 H   0  0  0  0  0  0  0  0  0  0  0  0
  1  2  1  0  0  0  0
  2 30  1  0  0  0  0
  2  4  2  0  0  0  0
  3  1  2  0  0  0  0
  3  5  1  0  0  0  0
  4  6  1  0  0  0  0
  4 32  1  0  0  0  0
  5  6  2  0  0  0  0
  6  7  1  0  0  0  0
  7  9  1  0  0  0  0
  8 10  1  0  0  0  0
  8  7  2  0  0  0  0
  9 12  1  0  0  0  0
  9 11  2  0  0  0  0
 10 13  2  0  0  0  0
 11 14  1  0  0  0  0
 12 15  2  0  0  0  0
 13 16  1  0  0  0  0
 13 12  1  0  0  0  0
 15 14  1  0  0  0  0
 16 17  2  0  0  0  0
 18 20  2  0  0  0  0
 18 16  1  0  0  0  0
 19 17  1  0  0  0  0
 19 35  1  0  0  0  0
 20 19  1  0  0  0  0
 21 20  1  0  0  0  0
 22 21  2  0  0  0  0
 23 21  1  0  0  0  0
 23 25  2  0  0  0  0
 24 26  2  0  0  0  0
 24 22  1  0  0  0  0
 26 23  1  0  0  0  0
 27 37  1  0  0  0  0
 27 25  1  0  0  0  0
 28 26  1  0  0  0  0
 28 27  2  0  0  0  0
 29  1  1  0  0  0  0
 31  3  1  0  0  0  0
 33  5  1  0  0  0  0
 34  8  1  0  0  0  0
 36 24  1  0  0  0  0
 38 28  1  0  0  0  0
M  END
$$$$
scan_sander_basal_param/min_pdbs/min_pdb_C306_150.pdb
 OpenBabel10021703403D

 38 43  0  0  0  0  0  0  0  0999 V2000
    0.2220    0.0670   -0.5250 C   0  0  0  0  0  0  0  0  0  0  0  0
    1.5820    0.0770   -0.1830 C   0  0  0  0  0  0  0  0  0  0  0  0
   -0.4770    1.2780   -0.6460 C   0  0  0  0  0  0  0  0  0  0  0  0
    2.2410    1.2970    0.0420 C   0  0  0  0  0  0  0  0  0  0  0  0
    0.1850    2.4960   -0.4200 C   0  0  0  0  0  0  0  0  0  0  0  0
    1.5530    2.5320   -0.0550 C   0  0  0  0  0  0  0  0  0  0  0  0
    2.2850    3.8220    0.1510 C   0  0  0  0  0  0  0  0  0  0  0  0
    3.5830    4.0020   -0.3830 C   0  0  0  0  0  0  0  0  0  0  0  0
    1.7400    4.9450    0.8190 C   0  0  0  0  0  0  0  0  0  0  0  0
    4.2930    5.1420   -0.2700 N   0  0  0  0  0  0  0  0  0  0  0  0
    0.5230    4.9670    1.4010 N   0  0  0  0  0  0  0  0  0  0  0  0
    2.4680    6.1230    0.9430 C   0  0  0  0  0  0  0  0  0  0  0  0
    3.7690    6.2040    0.3870 C   0  0  0  0  0  0  0  0  0  0  0  0
    0.3800    6.4650    2.0410 S   0  0  0  0  0  0  0  0  0  0  0  0
    1.8220    7.1040    1.6120 N   0  0  0  0  0  0  0  0  0  0  0  0
    4.6240    7.4070    0.4510 C   0  0  0  0  0  0  0  0  0  0  0  0
    4.3540    8.5020    1.1530 N   0  0  0  0  0  0  0  0  0  0  0  0
    6.1360    7.4590   -0.4480 B   0  0  0  0  0  0  0  0  0  0  0  0
    5.3410    9.4530    1.0220 C   0  0  0  0  0  0  0  0  0  0  0  0
    6.3760    9.0510    0.2150 C   0  0  0  0  0  0  0  0  0  0  0  0
    7.4620    9.9570   -0.0410 C   0  0  0  0  0  0  0  0  0  0  0  0
    7.3930   11.7340   -0.0100 C   0  0  0  0  0  0  0  0  0  0  0  0
    8.7510    9.5590   -0.2900 C   0  0  0  0  0  0  0  0  0  0  0  0
    9.1280   11.8800   -0.3670 C   0  0  0  0  0  0  0  0  0  0  0  0
    9.4380    7.9620   -0.3630 S   0  0  0  0  0  0  0  0  0  0  0  0
    9.6310   10.6130   -0.4600 C   0  0  0  0  0  0  0  0  0  0  0  0
   11.0120    8.7600   -0.6770 C   0  0  0  0  0  0  0  0  0  0  0  0
   10.9510   10.1490   -0.6920 C   0  0  0  0  0  0  0  0  0  0  0  0
   -0.2890   -0.8760   -0.7000 H   0  0  0  0  0  0  0  0  0  0  0  0
    2.1260   -0.8600   -0.0930 H   0  0  0  0  0  0  0  0  0  0  0  0
   -1.5280    1.2730   -0.9200 H   0  0  0  0  0  0  0  0  0  0  0  0
    3.2930    1.2860    0.3100 H   0  0  0  0  0  0  0  0  0  0  0  0
   -0.3670    3.4230   -0.5370 H   0  0  0  0  0  0  0  0  0  0  0  0
    4.0670    3.1980   -0.9360 H   0  0  0  0  0  0  0  0  0  0  0  0
    5.2410   10.3970    1.5410 H   0  0  0  0  0  0  0  0  0  0  0  0
    9.6200   12.8380   -0.4570 H   0  0  0  0  0  0  0  0  0  0  0  0
   11.8850    8.1370   -0.8220 H   0  0  0  0  0  0  0  0  0  0  0  0
   11.7990   10.8050   -0.8530 H   0  0  0  0  0  0  0  0  0  0  0  0
  1  2  1  0  0  0  0
  2 30  1  0  0  0  0
  2  4  2  0  0  0  0
  3  1  2  0  0  0  0
  3  5  1  0  0  0  0
  4 32  1  0  0  0  0
  5  6  2  0  0  0  0
  6  4  1  0  0  0  0
  6  7  1  0  0  0  0
  7  9  1  0  0  0  0
  8 10  1  0  0  0  0
  8  7  2  0  0  0  0
  9 12  1  0  0  0  0
  9 11  2  0  0  0  0
 10 13  2  0  0  0  0
 11 14  1  0  0  0  0
 12 15  2  0  0  0  0
 13 16  1  0  0  0  0
 13 12  1  0  0  0  0
 15 14  1  0  0  0  0
 16 17  2  0  0  0  0
 18 20  2  0  0  0  0
 18 16  1  0  0  0  0
 19 17  1  0  0  0  0
 19 35  1  0  0  0  0
 20 19  1  0  0  0  0
 21 22  2  0  0  0  0
 21 20  1  0  0  0  0
 23 21  1  0  0  0  0
 24 22  1  0  0  0  0
 25 23  2  0  0  0  0
 26 24  2  0  0  0  0
 26 23  1  0  0  0  0
 27 25  1  0  0  0  0
 28 27  2  0  0  0  0
 28 26  1  0  0  0  0
 29  1  1  0  0  0  0
 31  3  1  0  0  0  0
 33  5  1  0  0  0  0
 34  8  1  0  0  0  0
 36 24  1  0  0  0  0
 37 27  1  0  0  0  0
 38 28  1  0  0  0  0
M  END
$$$$
scan_sander_basal_param/min_pdbs/min_pdb_C306_165.pdb
 OpenBabel10021703403D

 38 43  0  0  0  0  0  0  0  0999 V2000
    0.2490    0.0470   -0.4920 C   0  0  0  0  0  0  0  0  0  0  0  0
    1.5760    0.0680   -0.0390 C   0  0  0  0  0  0  0  0  0  0  0  0
   -0.4270    1.2520   -0.7310 C   0  0  0  0  0  0  0  0  0  0  0  0
    2.2240    1.2950    0.1800 C   0  0  0  0  0  0  0  0  0  0  0  0
    0.2230    2.4770   -0.5120 C   0  0  0  0  0  0  0  0  0  0  0  0
    1.5570    2.5260   -0.0350 C   0  0  0  0  0  0  0  0  0  0  0  0
    2.2800    3.8220    0.1660 C   0  0  0  0  0  0  0  0  0  0  0  0
    3.6190    3.9690   -0.2650 C   0  0  0  0  0  0  0  0  0  0  0  0
    1.6900    4.9800    0.7290 C   0  0  0  0  0  0  0  0  0  0  0  0
    4.3270    5.1110   -0.1510 N   0  0  0  0  0  0  0  0  0  0  0  0
    0.4290    5.0360    1.2050 N   0  0  0  0  0  0  0  0  0  0  0  0
    2.4150    6.1600    0.8550 C   0  0  0  0  0  0  0  0  0  0  0  0
    3.7590    6.2070    0.4060 C   0  0  0  0  0  0  0  0  0  0  0  0
    0.2460    6.5650    1.7550 S   0  0  0  0  0  0  0  0  0  0  0  0
    1.7240    7.1760    1.4180 N   0  0  0  0  0  0  0  0  0  0  0  0
    4.6160    7.4080    0.4820 C   0  0  0  0  0  0  0  0  0  0  0  0
    4.2980    8.5380    1.1020 N   0  0  0  0  0  0  0  0  0  0  0  0
    6.1970    7.4100   -0.2880 B   0  0  0  0  0  0  0  0  0  0  0  0
    5.3000    9.4770    1.0030 C   0  0  0  0  0  0  0  0  0  0  0  0
    6.3950    9.0380    0.3010 C   0  0  0  0  0  0  0  0  0  0  0  0
    7.5080    9.9340    0.1060 C   0  0  0  0  0  0  0  0  0  0  0  0
    7.5090   11.6890    0.4040 C   0  0  0  0  0  0  0  0  0  0  0  0
    8.7620    9.5510   -0.3080 C   0  0  0  0  0  0  0  0  0  0  0  0
    9.2140   11.8480   -0.0640 C   0  0  0  0  0  0  0  0  0  0  0  0
    9.3940    7.9760   -0.6990 S   0  0  0  0  0  0  0  0  0  0  0  0
    9.6610   10.6010   -0.3890 C   0  0  0  0  0  0  0  0  0  0  0  0
   10.9620    8.7810   -1.0150 C   0  0  0  0  0  0  0  0  0  0  0  0
   10.9420   10.1550   -0.8050 C   0  0  0  0  0  0  0  0  0  0  0  0
   -0.2530   -0.9020   -0.6620 H   0  0  0  0  0  0  0  0  0  0  0  0
    2.1030   -0.8650    0.1440 H   0  0  0  0  0  0  0  0  0  0  0  0
   -1.4520    1.2380   -1.0920 H   0  0  0  0  0  0  0  0  0  0  0  0
    3.2500    1.2930    0.5350 H   0  0  0  0  0  0  0  0  0  0  0  0
   -0.3080    3.4000   -0.7210 H   0  0  0  0  0  0  0  0  0  0  0  0
    4.1410    3.1360   -0.7350 H   0  0  0  0  0  0  0  0  0  0  0  0
    5.1600   10.4440    1.4680 H   0  0  0  0  0  0  0  0  0  0  0  0
    9.7290   12.7980   -0.0510 H   0  0  0  0  0  0  0  0  0  0  0  0
   11.7990    8.1740   -1.3320 H   0  0  0  0  0  0  0  0  0  0  0  0
   11.7940   10.8130   -0.9350 H   0  0  0  0  0  0  0  0  0  0  0  0
  1  2  2  0  0  0  0
  2 30  1  0  0  0  0
  2  4  1  0  0  0  0
  3  5  2  0  0  0  0
  3  1  1  0  0  0  0
  4 32  1  0  0  0  0
  5  6  1  0  0  0  0
  6  7  1  0  0  0  0
  6  4  2  0  0  0  0
  7  9  1  0  0  0  0
  8 10  1  0  0  0  0
  8  7  2  0  0  0  0
  9 12  1  0  0  0  0
  9 11  2  0  0  0  0
 10 13  2  0  0  0  0
 11 14  1  0  0  0  0
 12 15  2  0  0  0  0
 13 16  1  0  0  0  0
 13 12  1  0  0  0  0
 15 14  1  0  0  0  0
 16 17  2  0  0  0  0
 18 20  2  0  0  0  0
 18 16  1  0  0  0  0
 19 17  1  0  0  0  0
 19 35  1  0  0  0  0
 20 19  1  0  0  0  0
 21 20  1  0  0  0  0
 21 22  2  0  0  0  0
 23 21  1  0  0  0  0
 24 36  1  0  0  0  0
 24 22  1  0  0  0  0
 25 23  2  0  0  0  0
 26 23  1  0  0  0  0
 26 24  2  0  0  0  0
 27 28  2  0  0  0  0
 27 25  1  0  0  0  0
 28 26  1  0  0  0  0
 29  1  1  0  0  0  0
 31  3  1  0  0  0  0
 33  5  1  0  0  0  0
 34  8  1  0  0  0  0
 37 27  1  0  0  0  0
 38 28  1  0  0  0  0
M  END
$$$$
scan_sander_basal_param/min_pdbs/min_pdb_C306_180.pdb
 OpenBabel10021703403D

 38 43  0  0  0  0  0  0  0  0999 V2000
    0.2650    0.0330   -0.4590 C   0  0  0  0  0  0  0  0  0  0  0  0
    1.5500    0.0670    0.1010 C   0  0  0  0  0  0  0  0  0  0  0  0
   -0.3750    1.2300   -0.8130 C   0  0  0  0  0  0  0  0  0  0  0  0
    2.1910    1.2990    0.3120 C   0  0  0  0  0  0  0  0  0  0  0  0
    0.2680    2.4600   -0.6000 C   0  0  0  0  0  0  0  0  0  0  0  0
    1.5590    2.5220   -0.0180 C   0  0  0  0  0  0  0  0  0  0  0  0
    2.2770    3.8220    0.1790 C   0  0  0  0  0  0  0  0  0  0  0  0
    3.6480    3.9380   -0.1460 C   0  0  0  0  0  0  0  0  0  0  0  0
    1.6560    5.0100    0.6340 C   0  0  0  0  0  0  0  0  0  0  0  0
    4.3570    5.0780   -0.0300 N   0  0  0  0  0  0  0  0  0  0  0  0
    0.3600    5.0990    1.0000 N   0  0  0  0  0  0  0  0  0  0  0  0
    2.3810    6.1900    0.7610 C   0  0  0  0  0  0  0  0  0  0  0  0
    3.7570    6.2050    0.4240 C   0  0  0  0  0  0  0  0  0  0  0  0
    0.1490    6.6550    1.4570 S   0  0  0  0  0  0  0  0  0  0  0  0
    1.6570    7.2370    1.2140 N   0  0  0  0  0  0  0  0  0  0  0  0
    4.6190    7.4020    0.5120 C   0  0  0  0  0  0  0  0  0  0  0  0
    4.2640    8.5640    1.0470 N   0  0  0  0  0  0  0  0  0  0  0  0
    6.2570    7.3550   -0.1230 B   0  0  0  0  0  0  0  0  0  0  0  0
    5.2800    9.4910    0.9830 C   0  0  0  0  0  0  0  0  0  0  0  0
    6.4230    9.0150    0.3870 C   0  0  0  0  0  0  0  0  0  0  0  0
    7.5620    9.8910    0.2590 C   0  0  0  0  0  0  0  0  0  0  0  0
    7.6480   11.5830    0.8100 C   0  0  0  0  0  0  0  0  0  0  0  0
    8.7650    9.5490   -0.3140 C   0  0  0  0  0  0  0  0  0  0  0  0
    9.3190   11.7690    0.2420 C   0  0  0  0  0  0  0  0  0  0  0  0
    9.2990    8.0540   -1.0310 S   0  0  0  0  0  0  0  0  0  0  0  0
    9.6920   10.5780   -0.3090 C   0  0  0  0  0  0  0  0  0  0  0  0
   10.8660    8.8620   -1.3440 C   0  0  0  0  0  0  0  0  0  0  0  0
   10.9150   10.1800   -0.9080 C   0  0  0  0  0  0  0  0  0  0  0  0
   -0.2320   -0.9190   -0.6240 H   0  0  0  0  0  0  0  0  0  0  0  0
    2.0500   -0.8600    0.3720 H   0  0  0  0  0  0  0  0  0  0  0  0
   -1.3670    1.2050   -1.2560 H   0  0  0  0  0  0  0  0  0  0  0  0
    3.1840    1.3080    0.7510 H   0  0  0  0  0  0  0  0  0  0  0  0
   -0.2340    3.3750   -0.8980 H   0  0  0  0  0  0  0  0  0  0  0  0
    4.1980    3.0790   -0.5300 H   0  0  0  0  0  0  0  0  0  0  0  0
    5.1100   10.4800    1.3880 H   0  0  0  0  0  0  0  0  0  0  0  0
    9.8670   12.6930    0.3550 H   0  0  0  0  0  0  0  0  0  0  0  0
   11.6490    8.2980   -1.8340 H   0  0  0  0  0  0  0  0  0  0  0  0
   11.7750   10.8330   -1.0080 H   0  0  0  0  0  0  0  0  0  0  0  0
  1  2  2  0  0  0  0
  2  4  1  0  0  0  0
  2 30  1  0  0  0  0
  3  5  2  0  0  0  0
  3  1  1  0  0  0  0
  4 32  1  0  0  0  0
  5  6  1  0  0  0  0
  6  7  1  0  0  0  0
  6  4  2  0  0  0  0
  7  9  1  0  0  0  0
  8 10  1  0  0  0  0
  8  7  2  0  0  0  0
  9 12  1  0  0  0  0
  9 11  2  0  0  0  0
 10 13  2  0  0  0  0
 11 14  1  0  0  0  0
 12 15  2  0  0  0  0
 13 16  1  0  0  0  0
 13 12  1  0  0  0  0
 15 14  1  0  0  0  0
 16 17  2  0  0  0  0
 18 20  2  0  0  0  0
 18 16  1  0  0  0  0
 19 17  1  0  0  0  0
 19 35  1  0  0  0  0
 20 19  1  0  0  0  0
 21 20  1  0  0  0  0
 21 22  1  0  0  0  0
 23 26  1  0  0  0  0
 23 21  2  0  0  0  0
 24 36  1  0  0  0  0
 24 22  2  0  0  0  0
 25 23  1  0  0  0  0
 26 24  1  0  0  0  0
 27 25  2  0  0  0  0
 27 28  1  0  0  0  0
 28 26  2  0  0  0  0
 29  1  1  0  0  0  0
 31  3  1  0  0  0  0
 33  5  1  0  0  0  0
 34  8  1  0  0  0  0
 37 27  1  0  0  0  0
 38 28  1  0  0  0  0
M  END
$$$$
scan_sander_basal_param/min_pdbs/min_pdb_C306_195.pdb
 OpenBabel10021703403D

 38 43  0  0  0  0  0  0  0  0999 V2000
    0.2700    0.0270   -0.4290 C   0  0  0  0  0  0  0  0  0  0  0  0
    1.5070    0.0760    0.2320 C   0  0  0  0  0  0  0  0  0  0  0  0
   -0.3230    1.2120   -0.8900 C   0  0  0  0  0  0  0  0  0  0  0  0
    2.1460    1.3100    0.4350 C   0  0  0  0  0  0  0  0  0  0  0  0
    0.3190    2.4440   -0.6840 C   0  0  0  0  0  0  0  0  0  0  0  0
    1.5590    2.5220   -0.0030 C   0  0  0  0  0  0  0  0  0  0  0  0
    2.2770    3.8230    0.1890 C   0  0  0  0  0  0  0  0  0  0  0  0
    3.6710    3.9090   -0.0290 C   0  0  0  0  0  0  0  0  0  0  0  0
    1.6370    5.0380    0.5360 C   0  0  0  0  0  0  0  0  0  0  0  0
    4.3850    5.0470    0.0900 N   0  0  0  0  0  0  0  0  0  0  0  0
    0.3180    5.1570    0.7910 N   0  0  0  0  0  0  0  0  0  0  0  0
    2.3670    6.2150    0.6650 C   0  0  0  0  0  0  0  0  0  0  0  0
    3.7660    6.2000    0.4400 C   0  0  0  0  0  0  0  0  0  0  0  0
    0.0930    6.7350    1.1550 S   0  0  0  0  0  0  0  0  0  0  0  0
    1.6230    7.2900    1.0080 N   0  0  0  0  0  0  0  0  0  0  0  0
    4.6340    7.3910    0.5400 C   0  0  0  0  0  0  0  0  0  0  0  0
    4.2530    8.5810    0.9890 N   0  0  0  0  0  0  0  0  0  0  0  0
    6.3170    7.2970    0.0420 B   0  0  0  0  0  0  0  0  0  0  0  0
    5.2820    9.4950    0.9590 C   0  0  0  0  0  0  0  0  0  0  0  0
    6.4580    8.9810    0.4710 C   0  0  0  0  0  0  0  0  0  0  0  0
    7.6220    9.8290    0.4070 C   0  0  0  0  0  0  0  0  0  0  0  0
    7.8100   11.4150    1.1940 C   0  0  0  0  0  0  0  0  0  0  0  0
    8.7580    9.5500   -0.3140 C   0  0  0  0  0  0  0  0  0  0  0  0
    9.4410   11.6390    0.5300 C   0  0  0  0  0  0  0  0  0  0  0  0
    9.1530    8.1900   -1.3270 S   0  0  0  0  0  0  0  0  0  0  0  0
    9.7210   10.5420   -0.2310 C   0  0  0  0  0  0  0  0  0  0  0  0
   10.7220    8.9940   -1.6430 C   0  0  0  0  0  0  0  0  0  0  0  0
   10.8680   10.2180   -1.0020 C   0  0  0  0  0  0  0  0  0  0  0  0
   -0.2250   -0.9270   -0.5870 H   0  0  0  0  0  0  0  0  0  0  0  0
    1.9700   -0.8410    0.5860 H   0  0  0  0  0  0  0  0  0  0  0  0
   -1.2760    1.1760   -1.4100 H   0  0  0  0  0  0  0  0  0  0  0  0
    3.1010    1.3300    0.9520 H   0  0  0  0  0  0  0  0  0  0  0  0
   -0.1460    3.3490   -1.0650 H   0  0  0  0  0  0  0  0  0  0  0  0
    4.2380    3.0270   -0.3260 H   0  0  0  0  0  0  0  0  0  0  0  0
    5.0970   10.5050    1.3020 H   0  0  0  0  0  0  0  0  0  0  0  0
   10.0290   12.5230    0.7330 H   0  0  0  0  0  0  0  0  0  0  0  0
   11.4320    8.5000   -2.2930 H   0  0  0  0  0  0  0  0  0  0  0  0
   11.7410   10.8560   -1.0770 H   0  0  0  0  0  0  0  0  0  0  0  0
  1  2  2  0  0  0  0
  2  4  1  0  0  0  0
  2 30  1  0  0  0  0
  3  5  2  0  0  0  0
  3  1  1  0  0  0  0
  4 32  1  0  0  0  0
  5  6  1  0  0  0  0
  6  7  1  0  0  0  0
  6  4  2  0  0  0  0
  7  9  1  0  0  0  0
  8 10  1  0  0  0  0
  8  7  2  0  0  0  0
  9 12  1  0  0  0  0
  9 11  2  0  0  0  0
 10 13  2  0  0  0  0
 11 14  1  0  0  0  0
 12 15  2  0  0  0  0
 13 16  1  0  0  0  0
 13 12  1  0  0  0  0
 15 14  1  0  0  0  0
 16 17  2  0  0  0  0
 18 20  2  0  0  0  0
 18 16  1  0  0  0  0
 19 17  1  0  0  0  0
 19 35  1  0  0  0  0
 20 19  1  0  0  0  0
 21 20  1  0  0  0  0
 21 22  1  0  0  0  0
 23 26  1  0  0  0  0
 23 21  2  0  0  0  0
 24 36  1  0  0  0  0
 24 22  2  0  0  0  0
 25 23  1  0  0  0  0
 26 24  1  0  0  0  0
 27 25  2  0  0  0  0
 27 28  1  0  0  0  0
 28 26  2  0  0  0  0
 29  1  1  0  0  0  0
 31  3  1  0  0  0  0
 33  5  1  0  0  0  0
 34  8  1  0  0  0  0
 37 27  1  0  0  0  0
 38 28  1  0  0  0  0
M  END
$$$$
scan_sander_basal_param/min_pdbs/min_pdb_C306_210.pdb
 OpenBabel10021703403D

 38 43  0  0  0  0  0  0  0  0999 V2000
    0.2620    0.0300   -0.3960 C   0  0  0  0  0  0  0  0  0  0  0  0
    1.4460    0.0930    0.3530 C   0  0  0  0  0  0  0  0  0  0  0  0
   -0.2750    1.1990   -0.9550 C   0  0  0  0  0  0  0  0  0  0  0  0
    2.0880    1.3270    0.5470 C   0  0  0  0  0  0  0  0  0  0  0  0
    0.3690    2.4310   -0.7580 C   0  0  0  0  0  0  0  0  0  0  0  0
    1.5550    2.5250    0.0110 C   0  0  0  0  0  0  0  0  0  0  0  0
    2.2780    3.8240    0.1980 C   0  0  0  0  0  0  0  0  0  0  0  0
    3.6860    3.8820    0.0820 C   0  0  0  0  0  0  0  0  0  0  0  0
    1.6340    5.0620    0.4390 C   0  0  0  0  0  0  0  0  0  0  0  0
    4.4070    5.0150    0.2030 N   0  0  0  0  0  0  0  0  0  0  0  0
    0.3020    5.2100    0.5880 N   0  0  0  0  0  0  0  0  0  0  0  0
    2.3700    6.2340    0.5690 C   0  0  0  0  0  0  0  0  0  0  0  0
    3.7820    6.1920    0.4510 C   0  0  0  0  0  0  0  0  0  0  0  0
    0.0750    6.8060    0.8610 S   0  0  0  0  0  0  0  0  0  0  0  0
    1.6210    7.3340    0.8050 N   0  0  0  0  0  0  0  0  0  0  0  0
    4.6590    7.3750    0.5620 C   0  0  0  0  0  0  0  0  0  0  0  0
    4.2640    8.5900    0.9260 N   0  0  0  0  0  0  0  0  0  0  0  0
    6.3750    7.2340    0.1980 B   0  0  0  0  0  0  0  0  0  0  0  0
    5.3060    9.4900    0.9300 C   0  0  0  0  0  0  0  0  0  0  0  0
    6.5010    8.9350    0.5490 C   0  0  0  0  0  0  0  0  0  0  0  0
    7.6860    9.7500    0.5410 C   0  0  0  0  0  0  0  0  0  0  0  0
    7.9940   11.1860    1.5440 C   0  0  0  0  0  0  0  0  0  0  0  0
    8.7420    9.5610   -0.3140 C   0  0  0  0  0  0  0  0  0  0  0  0
    9.5750   11.4680    0.7820 C   0  0  0  0  0  0  0  0  0  0  0  0
    8.9740    8.3760   -1.5660 S   0  0  0  0  0  0  0  0  0  0  0  0
    9.7460   10.5000   -0.1650 C   0  0  0  0  0  0  0  0  0  0  0  0
   10.5440    9.1730   -1.8960 C   0  0  0  0  0  0  0  0  0  0  0  0
   10.8030   10.2720   -1.0840 C   0  0  0  0  0  0  0  0  0  0  0  0
   -0.2360   -0.9240   -0.5480 H   0  0  0  0  0  0  0  0  0  0  0  0
    1.8660   -0.8120    0.7830 H   0  0  0  0  0  0  0  0  0  0  0  0
   -1.1870    1.1510   -1.5440 H   0  0  0  0  0  0  0  0  0  0  0  0
    3.0010    1.3600    1.1340 H   0  0  0  0  0  0  0  0  0  0  0  0
   -0.0510    3.3230   -1.2130 H   0  0  0  0  0  0  0  0  0  0  0  0
    4.2590    2.9800   -0.1300 H   0  0  0  0  0  0  0  0  0  0  0  0
    5.1180   10.5180    1.2120 H   0  0  0  0  0  0  0  0  0  0  0  0
   10.2120   12.2930    1.0660 H   0  0  0  0  0  0  0  0  0  0  0  0
   11.1700    8.7720   -2.6830 H   0  0  0  0  0  0  0  0  0  0  0  0
   11.6920   10.8890   -1.1420 H   0  0  0  0  0  0  0  0  0  0  0  0
  1  2  2  0  0  0  0
  2  4  1  0  0  0  0
  2 30  1  0  0  0  0
  3  5  2  0  0  0  0
  3  1  1  0  0  0  0
  4 32  1  0  0  0  0
  5  6  1  0  0  0  0
  6  7  1  0  0  0  0
  6  4  2  0  0  0  0
  7  9  1  0  0  0  0
  8  7  2  0  0  0  0
  8 10  1  0  0  0  0
  9 12  1  0  0  0  0
  9 11  2  0  0  0  0
 10 13  2  0  0  0  0
 11 14  1  0  0  0  0
 12 15  2  0  0  0  0
 13 16  1  0  0  0  0
 13 12  1  0  0  0  0
 15 14  1  0  0  0  0
 16 17  2  0  0  0  0
 17 19  1  0  0  0  0
 18 20  2  0  0  0  0
 18 16  1  0  0  0  0
 19 35  1  0  0  0  0
 20 19  1  0  0  0  0
 21 20  1  0  0  0  0
 21 22  1  0  0  0  0
 23 26  1  0  0  0  0
 23 21  2  0  0  0  0
 24 36  1  0  0  0  0
 24 22  2  0  0  0  0
 25 23  1  0  0  0  0
 26 24  1  0  0  0  0
 27 25  2  0  0  0  0
 27 28  1  0  0  0  0
 28 26  2  0  0  0  0
 29  1  1  0  0  0  0
 31  3  1  0  0  0  0
 33  5  1  0  0  0  0
 34  8  1  0  0  0  0
 37 27  1  0  0  0  0
 38 28  1  0  0  0  0
M  END
$$$$
scan_sander_basal_param/min_pdbs/min_pdb_C306_225.pdb
 OpenBabel10021703403D

 38 43  0  0  0  0  0  0  0  0999 V2000
    0.2360    0.0380   -0.3600 C   0  0  0  0  0  0  0  0  0  0  0  0
    1.3680    0.1170    0.4650 C   0  0  0  0  0  0  0  0  0  0  0  0
   -0.2420    1.1890   -1.0040 C   0  0  0  0  0  0  0  0  0  0  0  0
    2.0180    1.3480    0.6480 C   0  0  0  0  0  0  0  0  0  0  0  0
    0.4100    2.4190   -0.8180 C   0  0  0  0  0  0  0  0  0  0  0  0
    1.5440    2.5290    0.0250 C   0  0  0  0  0  0  0  0  0  0  0  0
    2.2760    3.8230    0.2030 C   0  0  0  0  0  0  0  0  0  0  0  0
    3.6900    3.8550    0.1810 C   0  0  0  0  0  0  0  0  0  0  0  0
    1.6410    5.0810    0.3450 C   0  0  0  0  0  0  0  0  0  0  0  0
    4.4210    4.9810    0.3010 N   0  0  0  0  0  0  0  0  0  0  0  0
    0.3040    5.2560    0.3970 N   0  0  0  0  0  0  0  0  0  0  0  0
    2.3880    6.2460    0.4740 C   0  0  0  0  0  0  0  0  0  0  0  0
    3.8030    6.1770    0.4550 C   0  0  0  0  0  0  0  0  0  0  0  0
    0.0890    6.8660    0.5840 S   0  0  0  0  0  0  0  0  0  0  0  0
    1.6440    7.3670    0.6100 N   0  0  0  0  0  0  0  0  0  0  0  0
    4.6930    7.3500    0.5730 C   0  0  0  0  0  0  0  0  0  0  0  0
    4.2950    8.5870    0.8570 N   0  0  0  0  0  0  0  0  0  0  0  0
    6.4270    7.1650    0.3320 B   0  0  0  0  0  0  0  0  0  0  0  0
    5.3500    9.4700    0.8920 C   0  0  0  0  0  0  0  0  0  0  0  0
    6.5540    8.8760    0.6180 C   0  0  0  0  0  0  0  0  0  0  0  0
    7.7550    9.6590    0.6510 C   0  0  0  0  0  0  0  0  0  0  0  0
    8.2000   10.8970    1.8450 C   0  0  0  0  0  0  0  0  0  0  0  0
    8.7210    9.5860   -0.3150 C   0  0  0  0  0  0  0  0  0  0  0  0
    9.7200   11.2630    0.9940 C   0  0  0  0  0  0  0  0  0  0  0  0
    8.7870    8.6070   -1.7500 S   0  0  0  0  0  0  0  0  0  0  0  0
    9.7720   10.4610   -0.1100 C   0  0  0  0  0  0  0  0  0  0  0  0
   10.3550    9.4060   -2.0950 C   0  0  0  0  0  0  0  0  0  0  0  0
   10.7320   10.3540   -1.1490 C   0  0  0  0  0  0  0  0  0  0  0  0
   -0.2680   -0.9140   -0.5030 H   0  0  0  0  0  0  0  0  0  0  0  0
    1.7420   -0.7750    0.9610 H   0  0  0  0  0  0  0  0  0  0  0  0
   -1.1130    1.1280   -1.6500 H   0  0  0  0  0  0  0  0  0  0  0  0
    2.8900    1.3930    1.2930 H   0  0  0  0  0  0  0  0  0  0  0  0
    0.0390    3.2950   -1.3400 H   0  0  0  0  0  0  0  0  0  0  0  0
    4.2600    2.9360    0.0480 H   0  0  0  0  0  0  0  0  0  0  0  0
    5.1680   10.5130    1.1160 H   0  0  0  0  0  0  0  0  0  0  0  0
   10.4120   12.0130    1.3490 H   0  0  0  0  0  0  0  0  0  0  0  0
   10.8910    9.1190   -2.9900 H   0  0  0  0  0  0  0  0  0  0  0  0
   11.6390   10.9460   -1.1920 H   0  0  0  0  0  0  0  0  0  0  0  0
  1  2  2  0  0  0  0
  2  4  1  0  0  0  0
  2 30  1  0  0  0  0
  3  5  2  0  0  0  0
  3  1  1  0  0  0  0
  4 32  1  0  0  0  0
  5  6  1  0  0  0  0
  6  7  1  0  0  0  0
  6  4  2  0  0  0  0
  7  9  1  0  0  0  0
  8  7  2  0  0  0  0
  8 10  1  0  0  0  0
  9 11  2  0  0  0  0
  9 12  1  0  0  0  0
 10 13  2  0  0  0  0
 11 14  1  0  0  0  0
 12 15  2  0  0  0  0
 13 12  1  0  0  0  0
 13 16  1  0  0  0  0
 14 15  1  0  0  0  0
 16 17  2  0  0  0  0
 17 19  1  0  0  0  0
 18 16  1  0  0  0  0
 18 20  2  0  0  0  0
 19 35  1  0  0  0  0
 20 21  1  0  0  0  0
 20 19  1  0  0  0  0
 21 22  1  0  0  0  0
 23 26  1  0  0  0  0
 23 21  2  0  0  0  0
 24 36  1  0  0  0  0
 24 22  2  0  0  0  0
 25 23  1  0  0  0  0
 26 24  1  0  0  0  0
 27 25  2  0  0  0  0
 27 28  1  0  0  0  0
 28 26  2  0  0  0  0
 29  1  1  0  0  0  0
 31  3  1  0  0  0  0
 33  5  1  0  0  0  0
 34  8  1  0  0  0  0
 37 27  1  0  0  0  0
 38 28  1  0  0  0  0
M  END
$$$$
scan_sander_basal_param/min_pdbs/min_pdb_C306_240.pdb
 OpenBabel10021703403D

 38 43  0  0  0  0  0  0  0  0999 V2000
    0.1880    0.0520   -0.3190 C   0  0  0  0  0  0  0  0  0  0  0  0
    1.2700    0.1450    0.5680 C   0  0  0  0  0  0  0  0  0  0  0  0
   -0.2260    1.1830   -1.0380 C   0  0  0  0  0  0  0  0  0  0  0  0
    1.9340    1.3710    0.7380 C   0  0  0  0  0  0  0  0  0  0  0  0
    0.4390    2.4070   -0.8650 C   0  0  0  0  0  0  0  0  0  0  0  0
    1.5230    2.5330    0.0390 C   0  0  0  0  0  0  0  0  0  0  0  0
    2.2700    3.8200    0.2070 C   0  0  0  0  0  0  0  0  0  0  0  0
    3.6830    3.8250    0.2690 C   0  0  0  0  0  0  0  0  0  0  0  0
    1.6530    5.0940    0.2590 C   0  0  0  0  0  0  0  0  0  0  0  0
    4.4290    4.9410    0.3860 N   0  0  0  0  0  0  0  0  0  0  0  0
    0.3200    5.2950    0.2230 N   0  0  0  0  0  0  0  0  0  0  0  0
    2.4160    6.2500    0.3840 C   0  0  0  0  0  0  0  0  0  0  0  0
    3.8280    6.1530    0.4530 C   0  0  0  0  0  0  0  0  0  0  0  0
    0.1280    6.9160    0.3290 S   0  0  0  0  0  0  0  0  0  0  0  0
    1.6890    7.3890    0.4280 N   0  0  0  0  0  0  0  0  0  0  0  0
    4.7340    7.3140    0.5750 C   0  0  0  0  0  0  0  0  0  0  0  0
    4.3450    8.5690    0.7830 N   0  0  0  0  0  0  0  0  0  0  0  0
    6.4760    7.0860    0.4470 B   0  0  0  0  0  0  0  0  0  0  0  0
    5.4140    9.4340    0.8470 C   0  0  0  0  0  0  0  0  0  0  0  0
    6.6170    8.8030    0.6770 C   0  0  0  0  0  0  0  0  0  0  0  0
    7.8320    9.5570    0.7360 C   0  0  0  0  0  0  0  0  0  0  0  0
    8.4300   10.5550    2.0770 C   0  0  0  0  0  0  0  0  0  0  0  0
    8.7040    9.6250   -0.3140 C   0  0  0  0  0  0  0  0  0  0  0  0
    9.8790   11.0290    1.1570 C   0  0  0  0  0  0  0  0  0  0  0  0
    8.6040    8.8830   -1.8810 S   0  0  0  0  0  0  0  0  0  0  0  0
    9.8020   10.4250   -0.0670 C   0  0  0  0  0  0  0  0  0  0  0  0
   10.1650    9.6910   -2.2390 C   0  0  0  0  0  0  0  0  0  0  0  0
   10.6620   10.4630   -1.1940 C   0  0  0  0  0  0  0  0  0  0  0  0
   -0.3260   -0.8960   -0.4530 H   0  0  0  0  0  0  0  0  0  0  0  0
    1.5950   -0.7310    1.1220 H   0  0  0  0  0  0  0  0  0  0  0  0
   -1.0590    1.1110   -1.7330 H   0  0  0  0  0  0  0  0  0  0  0  0
    2.7670    1.4270    1.4320 H   0  0  0  0  0  0  0  0  0  0  0  0
    0.1170    3.2680   -1.4440 H   0  0  0  0  0  0  0  0  0  0  0  0
    4.2400    2.8900    0.2090 H   0  0  0  0  0  0  0  0  0  0  0  0
    5.2430   10.4900    1.0130 H   0  0  0  0  0  0  0  0  0  0  0  0
   10.6300   11.6890    1.5660 H   0  0  0  0  0  0  0  0  0  0  0  0
   10.6090    9.5390   -3.2150 H   0  0  0  0  0  0  0  0  0  0  0  0
   11.5860   11.0290   -1.2260 H   0  0  0  0  0  0  0  0  0  0  0  0
  1  2  2  0  0  0  0
  2  4  1  0  0  0  0
  2 30  1  0  0  0  0
  3  5  2  0  0  0  0
  3  1  1  0  0  0  0
  4 32  1  0  0  0  0
  5  6  1  0  0  0  0
  6  7  1  0  0  0  0
  6  4  2  0  0  0  0
  7  9  1  0  0  0  0
  7  8  2  0  0  0  0
  8 10  1  0  0  0  0
  9 12  1  0  0  0  0
 10 13  2  0  0  0  0
 11  9  2  0  0  0  0
 11 14  1  0  0  0  0
 12 15  2  0  0  0  0
 12 13  1  0  0  0  0
 13 16  1  0  0  0  0
 14 15  1  0  0  0  0
 16 17  2  0  0  0  0
 17 19  1  0  0  0  0
 18 16  1  0  0  0  0
 18 20  2  0  0  0  0
 19 35  1  0  0  0  0
 20 21  1  0  0  0  0
 20 19  1  0  0  0  0
 21 22  1  0  0  0  0
 23 26  1  0  0  0  0
 23 21  2  0  0  0  0
 24 36  1  0  0  0  0
 24 22  2  0  0  0  0
 25 23  1  0  0  0  0
 26 24  1  0  0  0  0
 27 25  2  0  0  0  0
 27 28  1  0  0  0  0
 28 26  2  0  0  0  0
 29  1  1  0  0  0  0
 31  3  1  0  0  0  0
 33  5  1  0  0  0  0
 34  8  1  0  0  0  0
 37 27  1  0  0  0  0
 38 28  1  0  0  0  0
M  END
$$$$
scan_sander_basal_param/min_pdbs/min_pdb_C306_255.pdb
 OpenBabel10021703403D

 38 43  0  0  0  0  0  0  0  0999 V2000
    0.1160    0.0720   -0.2700 C   0  0  0  0  0  0  0  0  0  0  0  0
    1.1550    0.1780    0.6660 C   0  0  0  0  0  0  0  0  0  0  0  0
   -0.2350    1.1810   -1.0540 C   0  0  0  0  0  0  0  0  0  0  0  0
    1.8380    1.3950    0.8200 C   0  0  0  0  0  0  0  0  0  0  0  0
    0.4500    2.3970   -0.8960 C   0  0  0  0  0  0  0  0  0  0  0  0
    1.4900    2.5360    0.0560 C   0  0  0  0  0  0  0  0  0  0  0  0
    2.2580    3.8120    0.2100 C   0  0  0  0  0  0  0  0  0  0  0  0
    3.6660    3.7890    0.3430 C   0  0  0  0  0  0  0  0  0  0  0  0
    1.6710    5.1000    0.1800 C   0  0  0  0  0  0  0  0  0  0  0  0
    4.4320    4.8930    0.4530 N   0  0  0  0  0  0  0  0  0  0  0  0
    0.3460    5.3290    0.0680 N   0  0  0  0  0  0  0  0  0  0  0  0
    2.4530    6.2440    0.2970 C   0  0  0  0  0  0  0  0  0  0  0  0
    3.8580    6.1190    0.4410 C   0  0  0  0  0  0  0  0  0  0  0  0
    0.1870    6.9560    0.1000 S   0  0  0  0  0  0  0  0  0  0  0  0
    1.7520    7.3990    0.2590 N   0  0  0  0  0  0  0  0  0  0  0  0
    4.7830    7.2640    0.5640 C   0  0  0  0  0  0  0  0  0  0  0  0
    4.4140    8.5350    0.7020 N   0  0  0  0  0  0  0  0  0  0  0  0
    6.5240    6.9930    0.5340 B   0  0  0  0  0  0  0  0  0  0  0  0
    5.4990    9.3770    0.7900 C   0  0  0  0  0  0  0  0  0  0  0  0
    6.6930    8.7120    0.7160 C   0  0  0  0  0  0  0  0  0  0  0  0
    7.9210    9.4390    0.7920 C   0  0  0  0  0  0  0  0  0  0  0  0
    8.6770   10.1630    2.2260 C   0  0  0  0  0  0  0  0  0  0  0  0
    8.6960    9.6730   -0.3070 C   0  0  0  0  0  0  0  0  0  0  0  0
   10.0490   10.7710    1.2660 C   0  0  0  0  0  0  0  0  0  0  0  0
    8.4310    9.2060   -1.9570 S   0  0  0  0  0  0  0  0  0  0  0  0
    9.8400   10.3940   -0.0310 C   0  0  0  0  0  0  0  0  0  0  0  0
    9.9800   10.0350   -2.3200 C   0  0  0  0  0  0  0  0  0  0  0  0
   10.5970   10.6080   -1.2110 C   0  0  0  0  0  0  0  0  0  0  0  0
   -0.4140   -0.8690   -0.3920 H   0  0  0  0  0  0  0  0  0  0  0  0
    1.4310   -0.6820    1.2700 H   0  0  0  0  0  0  0  0  0  0  0  0
   -1.0330    1.0990   -1.7860 H   0  0  0  0  0  0  0  0  0  0  0  0
    2.6370    1.4620    1.5530 H   0  0  0  0  0  0  0  0  0  0  0  0
    0.1780    3.2390   -1.5240 H   0  0  0  0  0  0  0  0  0  0  0  0
    4.2030    2.8400    0.3480 H   0  0  0  0  0  0  0  0  0  0  0  0
    5.3460   10.4430    0.9030 H   0  0  0  0  0  0  0  0  0  0  0  0
   10.8590   11.3310    1.7120 H   0  0  0  0  0  0  0  0  0  0  0  0
   10.3300   10.0430   -3.3450 H   0  0  0  0  0  0  0  0  0  0  0  0
   11.5350   11.1510   -1.2350 H   0  0  0  0  0  0  0  0  0  0  0  0
  1  2  2  0  0  0  0
  2  4  1  0  0  0  0
  2 30  1  0  0  0  0
  3  5  2  0  0  0  0
  3  1  1  0  0  0  0
  4 32  1  0  0  0  0
  5  6  1  0  0  0  0
  6  7  1  0  0  0  0
  6  4  2  0  0  0  0
  7  8  2  0  0  0  0
  8 34  1  0  0  0  0
  8 10  1  0  0  0  0
  9  7  1  0  0  0  0
  9 12  1  0  0  0  0
 11 14  1  0  0  0  0
 11  9  2  0  0  0  0
 12 13  1  0  0  0  0
 13 10  2  0  0  0  0
 13 16  1  0  0  0  0
 14 15  1  0  0  0  0
 15 12  2  0  0  0  0
 16 17  2  0  0  0  0
 17 19  1  0  0  0  0
 18 16  1  0  0  0  0
 18 20  2  0  0  0  0
 19 35  1  0  0  0  0
 20 19  1  0  0  0  0
 20 21  1  0  0  0  0
 21 22  1  0  0  0  0
 23 26  1  0  0  0  0
 23 21  2  0  0  0  0
 24 36  1  0  0  0  0
 24 22  2  0  0  0  0
 25 23  1  0  0  0  0
 26 24  1  0  0  0  0
 27 25  2  0  0  0  0
 27 28  1  0  0  0  0
 28 26  2  0  0  0  0
 29  1  1  0  0  0  0
 31  3  1  0  0  0  0
 33  5  1  0  0  0  0
 37 27  1  0  0  0  0
 38 28  1  0  0  0  0
M  END
$$$$
scan_sander_basal_param/min_pdbs/min_pdb_C306_270.pdb
 OpenBabel10021703403D

 38 43  0  0  0  0  0  0  0  0999 V2000
    0.0220    0.0980   -0.2090 C   0  0  0  0  0  0  0  0  0  0  0  0
    1.0260    0.2150    0.7640 C   0  0  0  0  0  0  0  0  0  0  0  0
   -0.2670    1.1830   -1.0480 C   0  0  0  0  0  0  0  0  0  0  0  0
    1.7340    1.4200    0.9000 C   0  0  0  0  0  0  0  0  0  0  0  0
    0.4430    2.3870   -0.9100 C   0  0  0  0  0  0  0  0  0  0  0  0
    1.4470    2.5380    0.0780 C   0  0  0  0  0  0  0  0  0  0  0  0
    2.2420    3.8000    0.2130 C   0  0  0  0  0  0  0  0  0  0  0  0
    3.6430    3.7460    0.4050 C   0  0  0  0  0  0  0  0  0  0  0  0
    1.6900    5.0990    0.1090 C   0  0  0  0  0  0  0  0  0  0  0  0
    4.4320    4.8340    0.5030 N   0  0  0  0  0  0  0  0  0  0  0  0
    0.3780    5.3570   -0.0660 N   0  0  0  0  0  0  0  0  0  0  0  0
    2.4980    6.2270    0.2140 C   0  0  0  0  0  0  0  0  0  0  0  0
    3.8910    6.0740    0.4200 C   0  0  0  0  0  0  0  0  0  0  0  0
    0.2610    6.9870   -0.1030 S   0  0  0  0  0  0  0  0  0  0  0  0
    1.8300    7.3970    0.1020 N   0  0  0  0  0  0  0  0  0  0  0  0
    4.8410    7.1990    0.5370 C   0  0  0  0  0  0  0  0  0  0  0  0
    4.5000    8.4830    0.6110 N   0  0  0  0  0  0  0  0  0  0  0  0
    6.5740    6.8840    0.5890 B   0  0  0  0  0  0  0  0  0  0  0  0
    5.6020    9.3010    0.7130 C   0  0  0  0  0  0  0  0  0  0  0  0
    6.7800    8.6030    0.7180 C   0  0  0  0  0  0  0  0  0  0  0  0
    8.0240    9.3010    0.8100 C   0  0  0  0  0  0  0  0  0  0  0  0
    8.9310    9.7370    2.2710 C   0  0  0  0  0  0  0  0  0  0  0  0
    8.7000    9.7240   -0.2980 C   0  0  0  0  0  0  0  0  0  0  0  0
   10.2230   10.5010    1.3100 C   0  0  0  0  0  0  0  0  0  0  0  0
    8.2740    9.5610   -1.9730 S   0  0  0  0  0  0  0  0  0  0  0  0
    9.8840   10.3710   -0.0070 C   0  0  0  0  0  0  0  0  0  0  0  0
    9.8040   10.4280   -2.3270 C   0  0  0  0  0  0  0  0  0  0  0  0
   10.5350   10.7850   -1.1970 C   0  0  0  0  0  0  0  0  0  0  0  0
   -0.5260   -0.8340   -0.3150 H   0  0  0  0  0  0  0  0  0  0  0  0
    1.2550   -0.6260    1.4130 H   0  0  0  0  0  0  0  0  0  0  0  0
   -1.0380    1.0910   -1.8090 H   0  0  0  0  0  0  0  0  0  0  0  0
    2.5050    1.4960    1.6610 H   0  0  0  0  0  0  0  0  0  0  0  0
    0.2180    3.2100   -1.5810 H   0  0  0  0  0  0  0  0  0  0  0  0
    4.1540    2.7860    0.4680 H   0  0  0  0  0  0  0  0  0  0  0  0
    5.4750   10.3740    0.7770 H   0  0  0  0  0  0  0  0  0  0  0  0
   11.0860   10.9600    1.7700 H   0  0  0  0  0  0  0  0  0  0  0  0
   10.0590   10.6160   -3.3620 H   0  0  0  0  0  0  0  0  0  0  0  0
   11.4820   11.3130   -1.2120 H   0  0  0  0  0  0  0  0  0  0  0  0
  1  2  2  0  0  0  0
  2  4  1  0  0  0  0
  2 30  1  0  0  0  0
  3  5  2  0  0  0  0
  3  1  1  0  0  0  0
  4 32  1  0  0  0  0
  5  6  1  0  0  0  0
  6  7  1  0  0  0  0
  6  4  2  0  0  0  0
  7  8  2  0  0  0  0
  8 34  1  0  0  0  0
  8 10  1  0  0  0  0
  9  7  1  0  0  0  0
  9 12  1  0  0  0  0
 11  9  2  0  0  0  0
 12 13  1  0  0  0  0
 13 10  2  0  0  0  0
 13 16  1  0  0  0  0
 14 11  1  0  0  0  0
 14 15  1  0  0  0  0
 15 12  2  0  0  0  0
 16 18  1  0  0  0  0
 16 17  2  0  0  0  0
 17 19  1  0  0  0  0
 18 20  2  0  0  0  0
 19 20  1  0  0  0  0
 19 35  1  0  0  0  0
 20 21  1  0  0  0  0
 21 22  1  0  0  0  0
 23 26  1  0  0  0  0
 23 21  2  0  0  0  0
 24 36  1  0  0  0  0
 24 22  2  0  0  0  0
 25 23  1  0  0  0  0
 26 24  1  0  0  0  0
 27 25  2  0  0  0  0
 27 28  1  0  0  0  0
 28 26  2  0  0  0  0
 29  1  1  0  0  0  0
 31  3  1  0  0  0  0
 33  5  1  0  0  0  0
 37 27  1  0  0  0  0
 38 28  1  0  0  0  0
M  END
$$$$
scan_sander_basal_param/min_pdbs/min_pdb_C306_285.pdb
 OpenBabel10021703403D

 38 43  0  0  0  0  0  0  0  0999 V2000
   -0.0870    0.1300   -0.1370 C   0  0  0  0  0  0  0  0  0  0  0  0
    0.8950    0.2530    0.8560 C   0  0  0  0  0  0  0  0  0  0  0  0
   -0.3270    1.1940   -1.0190 C   0  0  0  0  0  0  0  0  0  0  0  0
    1.6330    1.4430    0.9690 C   0  0  0  0  0  0  0  0  0  0  0  0
    0.4120    2.3820   -0.9030 C   0  0  0  0  0  0  0  0  0  0  0  0
    1.3970    2.5390    0.1040 C   0  0  0  0  0  0  0  0  0  0  0  0
    2.2220    3.7830    0.2180 C   0  0  0  0  0  0  0  0  0  0  0  0
    3.6160    3.6990    0.4460 C   0  0  0  0  0  0  0  0  0  0  0  0
    1.7090    5.0930    0.0570 C   0  0  0  0  0  0  0  0  0  0  0  0
    4.4330    4.7690    0.5280 N   0  0  0  0  0  0  0  0  0  0  0  0
    0.4090    5.3800   -0.1580 N   0  0  0  0  0  0  0  0  0  0  0  0
    2.5440    6.2020    0.1450 C   0  0  0  0  0  0  0  0  0  0  0  0
    3.9280    6.0180    0.3910 C   0  0  0  0  0  0  0  0  0  0  0  0
    0.3380    7.0100   -0.2520 S   0  0  0  0  0  0  0  0  0  0  0  0
    1.9120    7.3850   -0.0220 N   0  0  0  0  0  0  0  0  0  0  0  0
    4.9050    7.1210    0.4930 C   0  0  0  0  0  0  0  0  0  0  0  0
    4.5980    8.4150    0.5160 N   0  0  0  0  0  0  0  0  0  0  0  0
    6.6270    6.7620    0.5980 B   0  0  0  0  0  0  0  0  0  0  0  0
    5.7200    9.2070    0.6170 C   0  0  0  0  0  0  0  0  0  0  0  0
    6.8790    8.4780    0.6710 C   0  0  0  0  0  0  0  0  0  0  0  0
    8.1410    9.1430    0.7700 C   0  0  0  0  0  0  0  0  0  0  0  0
    9.1920    9.2850    2.1920 C   0  0  0  0  0  0  0  0  0  0  0  0
    8.7150    9.7770   -0.2950 C   0  0  0  0  0  0  0  0  0  0  0  0
   10.4000   10.2220    1.2780 C   0  0  0  0  0  0  0  0  0  0  0  0
    8.1320    9.9390   -1.9220 S   0  0  0  0  0  0  0  0  0  0  0  0
    9.9340   10.3530   -0.0010 C   0  0  0  0  0  0  0  0  0  0  0  0
    9.6380   10.8600   -2.2470 C   0  0  0  0  0  0  0  0  0  0  0  0
   10.4780   10.9900   -1.1450 C   0  0  0  0  0  0  0  0  0  0  0  0
   -0.6590   -0.7900   -0.2270 H   0  0  0  0  0  0  0  0  0  0  0  0
    1.0850   -0.5720    1.5370 H   0  0  0  0  0  0  0  0  0  0  0  0
   -1.0810    1.0970   -1.7960 H   0  0  0  0  0  0  0  0  0  0  0  0
    2.3870    1.5230    1.7470 H   0  0  0  0  0  0  0  0  0  0  0  0
    0.2270    3.1880   -1.6060 H   0  0  0  0  0  0  0  0  0  0  0  0
    4.0990    2.7280    0.5540 H   0  0  0  0  0  0  0  0  0  0  0  0
    5.6210   10.2850    0.6440 H   0  0  0  0  0  0  0  0  0  0  0  0
   11.3130   10.5820    1.7310 H   0  0  0  0  0  0  0  0  0  0  0  0
    9.7980   11.2440   -3.2460 H   0  0  0  0  0  0  0  0  0  0  0  0
   11.4300   11.5090   -1.1490 H   0  0  0  0  0  0  0  0  0  0  0  0
  1  2  2  0  0  0  0
  2  4  1  0  0  0  0
  2 30  1  0  0  0  0
  3  5  2  0  0  0  0
  3  1  1  0  0  0  0
  4 32  1  0  0  0  0
  5  6  1  0  0  0  0
  6  7  1  0  0  0  0
  6  4  2  0  0  0  0
  7  8  2  0  0  0  0
  8 10  1  0  0  0  0
  8 34  1  0  0  0  0
  9 12  1  0  0  0  0
  9  7  1  0  0  0  0
 11  9  2  0  0  0  0
 12 13  1  0  0  0  0
 13 16  1  0  0  0  0
 13 10  2  0  0  0  0
 14 11  1  0  0  0  0
 14 15  1  0  0  0  0
 15 12  2  0  0  0  0
 16 17  2  0  0  0  0
 16 18  1  0  0  0  0
 17 19  1  0  0  0  0
 18 20  2  0  0  0  0
 19 35  1  0  0  0  0
 19 20  1  0  0  0  0
 20 21  1  0  0  0  0
 21 22  1  0  0  0  0
 23 26  1  0  0  0  0
 23 21  2  0  0  0  0
 24 36  1  0  0  0  0
 24 22  2  0  0  0  0
 25 23  1  0  0  0  0
 26 24  1  0  0  0  0
 27 25  2  0  0  0  0
 27 28  1  0  0  0  0
 28 26  2  0  0  0  0
 29  1  1  0  0  0  0
 31  3  1  0  0  0  0
 33  5  1  0  0  0  0
 37 27  1  0  0  0  0
 38 28  1  0  0  0  0
M  END
$$$$
scan_sander_basal_param/min_pdbs/min_pdb_C306_300.pdb
 OpenBabel10021703403D

 38 43  0  0  0  0  0  0  0  0999 V2000
   -0.1890    0.1550   -0.0380 C   0  0  0  0  0  0  0  0  0  0  0  0
    0.7840    0.2900    0.9630 C   0  0  0  0  0  0  0  0  0  0  0  0
   -0.3920    1.1930   -0.9600 C   0  0  0  0  0  0  0  0  0  0  0  0
    1.5480    1.4650    1.0450 C   0  0  0  0  0  0  0  0  0  0  0  0
    0.3740    2.3670   -0.8750 C   0  0  0  0  0  0  0  0  0  0  0  0
    1.3490    2.5360    0.1390 C   0  0  0  0  0  0  0  0  0  0  0  0
    2.2020    3.7640    0.2210 C   0  0  0  0  0  0  0  0  0  0  0  0
    3.5900    3.6560    0.4710 C   0  0  0  0  0  0  0  0  0  0  0  0
    1.7220    5.0790    0.0080 C   0  0  0  0  0  0  0  0  0  0  0  0
    4.4310    4.7080    0.5270 N   0  0  0  0  0  0  0  0  0  0  0  0
    0.4320    5.3880   -0.2350 N   0  0  0  0  0  0  0  0  0  0  0  0
    2.5820    6.1700    0.0680 C   0  0  0  0  0  0  0  0  0  0  0  0
    3.9580    5.9640    0.3390 C   0  0  0  0  0  0  0  0  0  0  0  0
    0.4010    7.0150   -0.3870 S   0  0  0  0  0  0  0  0  0  0  0  0
    1.9800    7.3610   -0.1480 N   0  0  0  0  0  0  0  0  0  0  0  0
    4.9600    7.0470    0.4170 C   0  0  0  0  0  0  0  0  0  0  0  0
    4.6830    8.3470    0.3900 N   0  0  0  0  0  0  0  0  0  0  0  0
    6.6710    6.6510    0.5570 B   0  0  0  0  0  0  0  0  0  0  0  0
    5.8230    9.1150    0.4770 C   0  0  0  0  0  0  0  0  0  0  0  0
    6.9650    8.3630    0.5660 C   0  0  0  0  0  0  0  0  0  0  0  0
    8.2460    8.9950    0.6660 C   0  0  0  0  0  0  0  0  0  0  0  0
    9.4200    8.8520    1.9890 C   0  0  0  0  0  0  0  0  0  0  0  0
    8.7320    9.8390   -0.2940 C   0  0  0  0  0  0  0  0  0  0  0  0
   10.5580    9.9580    1.1790 C   0  0  0  0  0  0  0  0  0  0  0  0
    8.0220   10.3200   -1.8040 S   0  0  0  0  0  0  0  0  0  0  0  0
    9.9830   10.3440    0.0010 C   0  0  0  0  0  0  0  0  0  0  0  0
    9.5080   11.2900   -2.0660 C   0  0  0  0  0  0  0  0  0  0  0  0
   10.4390   11.1980   -1.0360 C   0  0  0  0  0  0  0  0  0  0  0  0
   -0.7810   -0.7540   -0.1040 H   0  0  0  0  0  0  0  0  0  0  0  0
    0.9450   -0.5150    1.6760 H   0  0  0  0  0  0  0  0  0  0  0  0
   -1.1380    1.0860   -1.7430 H   0  0  0  0  0  0  0  0  0  0  0  0
    2.2930    1.5560    1.8300 H   0  0  0  0  0  0  0  0  0  0  0  0
    0.2170    3.1520   -1.6080 H   0  0  0  0  0  0  0  0  0  0  0  0
    4.0490    2.6780    0.6190 H   0  0  0  0  0  0  0  0  0  0  0  0
    5.7460   10.1950    0.4700 H   0  0  0  0  0  0  0  0  0  0  0  0
   11.5130   10.2190    1.6120 H   0  0  0  0  0  0  0  0  0  0  0  0
    9.5900   11.8670   -2.9780 H   0  0  0  0  0  0  0  0  0  0  0  0
   11.3960   11.7070   -1.0180 H   0  0  0  0  0  0  0  0  0  0  0  0
  1  2  2  0  0  0  0
  2  4  1  0  0  0  0
  2 30  1  0  0  0  0
  3  5  2  0  0  0  0
  3  1  1  0  0  0  0
  4 32  1  0  0  0  0
  5  6  1  0  0  0  0
  6  7  1  0  0  0  0
  6  4  2  0  0  0  0
  7  8  2  0  0  0  0
  8 10  1  0  0  0  0
  8 34  1  0  0  0  0
  9 12  1  0  0  0  0
  9  7  1  0  0  0  0
 11  9  2  0  0  0  0
 12 13  1  0  0  0  0
 13 16  1  0  0  0  0
 13 10  2  0  0  0  0
 14 11  1  0  0  0  0
 14 15  1  0  0  0  0
 15 12  2  0  0  0  0
 16 18  1  0  0  0  0
 17 16  2  0  0  0  0
 17 19  1  0  0  0  0
 18 20  2  0  0  0  0
 19 20  1  0  0  0  0
 20 21  1  0  0  0  0
 21 22  1  0  0  0  0
 23 26  1  0  0  0  0
 23 21  2  0  0  0  0
 24 36  1  0  0  0  0
 24 22  2  0  0  0  0
 25 23  1  0  0  0  0
 26 24  1  0  0  0  0
 27 25  2  0  0  0  0
 27 28  1  0  0  0  0
 28 38  1  0  0  0  0
 28 26  2  0  0  0  0
 29  1  1  0  0  0  0
 31  3  1  0  0  0  0
 33  5  1  0  0  0  0
 35 19  1  0  0  0  0
 37 27  1  0  0  0  0
M  END
$$$$
scan_sander_basal_param/min_pdbs/min_pdb_C306_315.pdb
 OpenBabel10021703403D

 38 43  0  0  0  0  0  0  0  0999 V2000
   -0.2620    0.1690    0.0760 C   0  0  0  0  0  0  0  0  0  0  0  0
    0.7030    0.3270    1.0820 C   0  0  0  0  0  0  0  0  0  0  0  0
   -0.4400    1.1750   -0.8850 C   0  0  0  0  0  0  0  0  0  0  0  0
    1.4840    1.4930    1.1280 C   0  0  0  0  0  0  0  0  0  0  0  0
    0.3430    2.3390   -0.8370 C   0  0  0  0  0  0  0  0  0  0  0  0
    1.3100    2.5320    0.1800 C   0  0  0  0  0  0  0  0  0  0  0  0
    2.1820    3.7490    0.2250 C   0  0  0  0  0  0  0  0  0  0  0  0
    3.5660    3.6290    0.4920 C   0  0  0  0  0  0  0  0  0  0  0  0
    1.7250    5.0620   -0.0430 C   0  0  0  0  0  0  0  0  0  0  0  0
    4.4220    4.6700    0.5170 N   0  0  0  0  0  0  0  0  0  0  0  0
    0.4410    5.3810   -0.3100 N   0  0  0  0  0  0  0  0  0  0  0  0
    2.6010    6.1420   -0.0150 C   0  0  0  0  0  0  0  0  0  0  0  0
    3.9710    5.9240    0.2770 C   0  0  0  0  0  0  0  0  0  0  0  0
    0.4370    7.0020   -0.5230 S   0  0  0  0  0  0  0  0  0  0  0  0
    2.0190    7.3320   -0.2820 N   0  0  0  0  0  0  0  0  0  0  0  0
    4.9880    6.9940    0.3230 C   0  0  0  0  0  0  0  0  0  0  0  0
    4.7330    8.2960    0.2440 N   0  0  0  0  0  0  0  0  0  0  0  0
    6.6910    6.5800    0.4950 B   0  0  0  0  0  0  0  0  0  0  0  0
    5.8840    9.0490    0.3080 C   0  0  0  0  0  0  0  0  0  0  0  0
    7.0170    8.2850    0.4290 C   0  0  0  0  0  0  0  0  0  0  0  0
    8.3170    8.8860    0.5190 C   0  0  0  0  0  0  0  0  0  0  0  0
    9.5950    8.4720    1.6810 C   0  0  0  0  0  0  0  0  0  0  0  0
    8.7440    9.9100   -0.2850 C   0  0  0  0  0  0  0  0  0  0  0  0
   10.6880    9.7110    1.0210 C   0  0  0  0  0  0  0  0  0  0  0  0
    7.9490   10.6810   -1.6260 S   0  0  0  0  0  0  0  0  0  0  0  0
   10.0300   10.3310   -0.0020 C   0  0  0  0  0  0  0  0  0  0  0  0
    9.4340   11.6690   -1.8040 C   0  0  0  0  0  0  0  0  0  0  0  0
   10.4330   11.3650   -0.8850 C   0  0  0  0  0  0  0  0  0  0  0  0
   -0.8670   -0.7320    0.0390 H   0  0  0  0  0  0  0  0  0  0  0  0
    0.8450   -0.4530    1.8260 H   0  0  0  0  0  0  0  0  0  0  0  0
   -1.1800    1.0500   -1.6710 H   0  0  0  0  0  0  0  0  0  0  0  0
    2.2240    1.6020    1.9160 H   0  0  0  0  0  0  0  0  0  0  0  0
    0.2050    3.0980   -1.6000 H   0  0  0  0  0  0  0  0  0  0  0  0
    4.0070    2.6510    0.6820 H   0  0  0  0  0  0  0  0  0  0  0  0
    5.8180   10.1290    0.2700 H   0  0  0  0  0  0  0  0  0  0  0  0
   11.6830    9.8670    1.4120 H   0  0  0  0  0  0  0  0  0  0  0  0
    9.4660   12.4110   -2.5920 H   0  0  0  0  0  0  0  0  0  0  0  0
   11.4040   11.8460   -0.8440 H   0  0  0  0  0  0  0  0  0  0  0  0
  1  2  2  0  0  0  0
  2  4  1  0  0  0  0
  2 30  1  0  0  0  0
  3  5  2  0  0  0  0
  3  1  1  0  0  0  0
  4 32  1  0  0  0  0
  5  6  1  0  0  0  0
  6  7  1  0  0  0  0
  6  4  2  0  0  0  0
  7  8  2  0  0  0  0
  8 10  1  0  0  0  0
  8 34  1  0  0  0  0
  9 12  1  0  0  0  0
  9  7  1  0  0  0  0
 11  9  2  0  0  0  0
 12 13  1  0  0  0  0
 13 16  1  0  0  0  0
 13 10  2  0  0  0  0
 14 11  1  0  0  0  0
 14 15  1  0  0  0  0
 15 12  2  0  0  0  0
 16 18  1  0  0  0  0
 17 19  1  0  0  0  0
 17 16  2  0  0  0  0
 19 20  1  0  0  0  0
 20 18  2  0  0  0  0
 20 21  1  0  0  0  0
 21 22  1  0  0  0  0
 23 26  1  0  0  0  0
 23 21  2  0  0  0  0
 24 36  1  0  0  0  0
 24 22  2  0  0  0  0
 25 23  1  0  0  0  0
 26 24  1  0  0  0  0
 27 25  2  0  0  0  0
 27 28  1  0  0  0  0
 28 38  1  0  0  0  0
 28 26  2  0  0  0  0
 29  1  1  0  0  0  0
 31  3  1  0  0  0  0
 33  5  1  0  0  0  0
 35 19  1  0  0  0  0
 37 27  1  0  0  0  0
M  END
$$$$
scan_sander_basal_param/min_pdbs/min_pdb_C306_330.pdb
 OpenBabel10021703403D

 38 43  0  0  0  0  0  0  0  0999 V2000
   -0.3010    0.1690    0.1950 C   0  0  0  0  0  0  0  0  0  0  0  0
    0.6580    0.3590    1.2010 C   0  0  0  0  0  0  0  0  0  0  0  0
   -0.4660    1.1380   -0.8050 C   0  0  0  0  0  0  0  0  0  0  0  0
    1.4460    1.5220    1.2080 C   0  0  0  0  0  0  0  0  0  0  0  0
    0.3230    2.2990   -0.7950 C   0  0  0  0  0  0  0  0  0  0  0  0
    1.2850    2.5250    0.2210 C   0  0  0  0  0  0  0  0  0  0  0  0
    2.1640    3.7380    0.2250 C   0  0  0  0  0  0  0  0  0  0  0  0
    3.5450    3.6200    0.5070 C   0  0  0  0  0  0  0  0  0  0  0  0
    1.7160    5.0420   -0.0950 C   0  0  0  0  0  0  0  0  0  0  0  0
    4.4080    4.6560    0.4980 N   0  0  0  0  0  0  0  0  0  0  0  0
    0.4370    5.3580   -0.3830 N   0  0  0  0  0  0  0  0  0  0  0  0
    2.5980    6.1170   -0.1020 C   0  0  0  0  0  0  0  0  0  0  0  0
    3.9650    5.9030    0.2070 C   0  0  0  0  0  0  0  0  0  0  0  0
    0.4430    6.9700   -0.6580 S   0  0  0  0  0  0  0  0  0  0  0  0
    2.0260    7.3000   -0.4180 N   0  0  0  0  0  0  0  0  0  0  0  0
    4.9880    6.9680    0.2200 C   0  0  0  0  0  0  0  0  0  0  0  0
    4.7430    8.2670    0.0900 N   0  0  0  0  0  0  0  0  0  0  0  0
    6.6860    6.5530    0.4190 B   0  0  0  0  0  0  0  0  0  0  0  0
    5.8990    9.0150    0.1280 C   0  0  0  0  0  0  0  0  0  0  0  0
    7.0310    8.2530    0.2790 C   0  0  0  0  0  0  0  0  0  0  0  0
    8.3510    8.8220    0.3520 C   0  0  0  0  0  0  0  0  0  0  0  0
    9.7060    8.1540    1.2880 C   0  0  0  0  0  0  0  0  0  0  0  0
    8.7520    9.9850   -0.2600 C   0  0  0  0  0  0  0  0  0  0  0  0
   10.7880    9.4780    0.8070 C   0  0  0  0  0  0  0  0  0  0  0  0
    7.9100   11.0260   -1.3740 S   0  0  0  0  0  0  0  0  0  0  0  0
   10.0750   10.3080   -0.0100 C   0  0  0  0  0  0  0  0  0  0  0  0
    9.4160   11.9910   -1.4670 C   0  0  0  0  0  0  0  0  0  0  0  0
   10.4610   11.4830   -0.7050 C   0  0  0  0  0  0  0  0  0  0  0  0
   -0.9110   -0.7300    0.1880 H   0  0  0  0  0  0  0  0  0  0  0  0
    0.7910   -0.3920    1.9750 H   0  0  0  0  0  0  0  0  0  0  0  0
   -1.2010    0.9880   -1.5910 H   0  0  0  0  0  0  0  0  0  0  0  0
    2.1810    1.6560    1.9970 H   0  0  0  0  0  0  0  0  0  0  0  0
    0.1950    3.0300   -1.5880 H   0  0  0  0  0  0  0  0  0  0  0  0
    3.9790    2.6480    0.7360 H   0  0  0  0  0  0  0  0  0  0  0  0
    5.8250   10.0920    0.0620 H   0  0  0  0  0  0  0  0  0  0  0  0
   11.8170    9.5270    1.1310 H   0  0  0  0  0  0  0  0  0  0  0  0
    9.4260   12.8710   -2.0980 H   0  0  0  0  0  0  0  0  0  0  0  0
   11.4540   11.9150   -0.6480 H   0  0  0  0  0  0  0  0  0  0  0  0
  1  2  2  0  0  0  0
  2  4  1  0  0  0  0
  2 30  1  0  0  0  0
  3  5  2  0  0  0  0
  3  1  1  0  0  0  0
  4 32  1  0  0  0  0
  5  6  1  0  0  0  0
  6  7  1  0  0  0  0
  6  4  2  0  0  0  0
  7  8  2  0  0  0  0
  8 34  1  0  0  0  0
  9  7  1  0  0  0  0
 10  8  1  0  0  0  0
 11  9  2  0  0  0  0
 12  9  1  0  0  0  0
 12 13  1  0  0  0  0
 13 16  1  0  0  0  0
 13 10  2  0  0  0  0
 14 15  1  0  0  0  0
 14 11  1  0  0  0  0
 15 12  2  0  0  0  0
 16 18  1  0  0  0  0
 17 19  1  0  0  0  0
 17 16  2  0  0  0  0
 19 20  1  0  0  0  0
 20 21  1  0  0  0  0
 20 18  2  0  0  0  0
 21 22  1  0  0  0  0
 23 26  1  0  0  0  0
 23 21  2  0  0  0  0
 24 36  1  0  0  0  0
 24 22  2  0  0  0  0
 25 23  1  0  0  0  0
 26 24  1  0  0  0  0
 27 25  2  0  0  0  0
 27 28  1  0  0  0  0
 28 38  1  0  0  0  0
 28 26  2  0  0  0  0
 29  1  1  0  0  0  0
 31  3  1  0  0  0  0
 33  5  1  0  0  0  0
 35 19  1  0  0  0  0
 37 27  1  0  0  0  0
M  END
$$$$
scan_sander_basal_param/min_pdbs/min_pdb_C306_345.pdb
 OpenBabel10021703403D

 38 43  0  0  0  0  0  0  0  0999 V2000
   -0.3150    0.1630    0.3280 C   0  0  0  0  0  0  0  0  0  0  0  0
    0.6360    0.3980    1.3320 C   0  0  0  0  0  0  0  0  0  0  0  0
   -0.4720    1.0870   -0.7160 C   0  0  0  0  0  0  0  0  0  0  0  0
    1.4240    1.5600    1.2950 C   0  0  0  0  0  0  0  0  0  0  0  0
    0.3180    2.2480   -0.7500 C   0  0  0  0  0  0  0  0  0  0  0  0
    1.2710    2.5180    0.2630 C   0  0  0  0  0  0  0  0  0  0  0  0
    2.1490    3.7310    0.2220 C   0  0  0  0  0  0  0  0  0  0  0  0
    3.5280    3.6260    0.5200 C   0  0  0  0  0  0  0  0  0  0  0  0
    1.7040    5.0200   -0.1590 C   0  0  0  0  0  0  0  0  0  0  0  0
    4.3900    4.6610    0.4730 N   0  0  0  0  0  0  0  0  0  0  0  0
    0.4270    5.3220   -0.4720 N   0  0  0  0  0  0  0  0  0  0  0  0
    2.5860    6.0930   -0.2060 C   0  0  0  0  0  0  0  0  0  0  0  0
    3.9500    5.8940    0.1240 C   0  0  0  0  0  0  0  0  0  0  0  0
    0.4360    6.9200   -0.8160 S   0  0  0  0  0  0  0  0  0  0  0  0
    2.0160    7.2610   -0.5780 N   0  0  0  0  0  0  0  0  0  0  0  0
    4.9730    6.9590    0.0980 C   0  0  0  0  0  0  0  0  0  0  0  0
    4.7310    8.2500   -0.0910 N   0  0  0  0  0  0  0  0  0  0  0  0
    6.6680    6.5570    0.3290 B   0  0  0  0  0  0  0  0  0  0  0  0
    5.8850    9.0000   -0.0760 C   0  0  0  0  0  0  0  0  0  0  0  0
    7.0210    8.2500    0.1200 C   0  0  0  0  0  0  0  0  0  0  0  0
    8.3570    8.7940    0.1780 C   0  0  0  0  0  0  0  0  0  0  0  0
    9.7580    7.9170    0.8360 C   0  0  0  0  0  0  0  0  0  0  0  0
    8.7620   10.0470   -0.2250 C   0  0  0  0  0  0  0  0  0  0  0  0
   10.8540    9.2790    0.5400 C   0  0  0  0  0  0  0  0  0  0  0  0
    7.8960   11.3320   -1.0240 S   0  0  0  0  0  0  0  0  0  0  0  0
   10.1160   10.2750   -0.0290 C   0  0  0  0  0  0  0  0  0  0  0  0
    9.4330   12.2470   -1.0480 C   0  0  0  0  0  0  0  0  0  0  0  0
   10.5050   11.5560   -0.4980 C   0  0  0  0  0  0  0  0  0  0  0  0
   -0.9250   -0.7360    0.3550 H   0  0  0  0  0  0  0  0  0  0  0  0
    0.7620   -0.3190    2.1390 H   0  0  0  0  0  0  0  0  0  0  0  0
   -1.2000    0.9030   -1.5000 H   0  0  0  0  0  0  0  0  0  0  0  0
    2.1510    1.7290    2.0830 H   0  0  0  0  0  0  0  0  0  0  0  0
    0.1960    2.9430   -1.5750 H   0  0  0  0  0  0  0  0  0  0  0  0
    3.9600    2.6650    0.7960 H   0  0  0  0  0  0  0  0  0  0  0  0
    5.7950   10.0690   -0.1910 H   0  0  0  0  0  0  0  0  0  0  0  0
   11.9080    9.2350    0.7780 H   0  0  0  0  0  0  0  0  0  0  0  0
    9.4380   13.2380   -1.4830 H   0  0  0  0  0  0  0  0  0  0  0  0
   11.5190   11.9350   -0.4370 H   0  0  0  0  0  0  0  0  0  0  0  0
  1 29  1  0  0  0  0
  1  2  2  0  0  0  0
  2 30  1  0  0  0  0
  3  1  1  0  0  0  0
  4  2  1  0  0  0  0
  4 32  1  0  0  0  0
  5  3  2  0  0  0  0
  5  6  1  0  0  0  0
  6  4  2  0  0  0  0
  7  6  1  0  0  0  0
  7  8  2  0  0  0  0
  8 34  1  0  0  0  0
  9  7  1  0  0  0  0
 10  8  1  0  0  0  0
 11  9  2  0  0  0  0
 12  9  1  0  0  0  0
 12 13  1  0  0  0  0
 13 10  2  0  0  0  0
 14 15  1  0  0  0  0
 14 11  1  0  0  0  0
 15 12  2  0  0  0  0
 16 13  1  0  0  0  0
 16 18  1  0  0  0  0
 17 19  1  0  0  0  0
 17 16  2  0  0  0  0
 19 20  1  0  0  0  0
 20 21  1  0  0  0  0
 20 18  2  0  0  0  0
 21 22  1  0  0  0  0
 23 26  1  0  0  0  0
 23 21  2  0  0  0  0
 24 36  1  0  0  0  0
 24 22  2  0  0  0  0
 25 23  1  0  0  0  0
 26 24  1  0  0  0  0
 27 25  2  0  0  0  0
 27 28  1  0  0  0  0
 28 38  1  0  0  0  0
 28 26  2  0  0  0  0
 31  3  1  0  0  0  0
 33  5  1  0  0  0  0
 35 19  1  0  0  0  0
 37 27  1  0  0  0  0
M  END
$$$$
scan_sander_basal_param/min_pdbs/min_pdb_C306_360.pdb
 OpenBabel10021703403D

 38 43  0  0  0  0  0  0  0  0999 V2000
   -0.3250    0.1710    0.4690 C   0  0  0  0  0  0  0  0  0  0  0  0
    0.6130    0.4570    1.4720 C   0  0  0  0  0  0  0  0  0  0  0  0
   -0.4680    1.0410   -0.6230 C   0  0  0  0  0  0  0  0  0  0  0  0
    1.4020    1.6150    1.3850 C   0  0  0  0  0  0  0  0  0  0  0  0
    0.3230    2.1980   -0.7060 C   0  0  0  0  0  0  0  0  0  0  0  0
    1.2630    2.5200    0.3040 C   0  0  0  0  0  0  0  0  0  0  0  0
    2.1430    3.7280    0.2110 C   0  0  0  0  0  0  0  0  0  0  0  0
    3.5180    3.6390    0.5320 C   0  0  0  0  0  0  0  0  0  0  0  0
    1.7040    4.9960   -0.2410 C   0  0  0  0  0  0  0  0  0  0  0  0
    4.3820    4.6700    0.4410 N   0  0  0  0  0  0  0  0  0  0  0  0
    0.4310    5.2820   -0.5840 N   0  0  0  0  0  0  0  0  0  0  0  0
    2.5880    6.0660   -0.3320 C   0  0  0  0  0  0  0  0  0  0  0  0
    3.9470    5.8830    0.0230 C   0  0  0  0  0  0  0  0  0  0  0  0
    0.4460    6.8610   -1.0110 S   0  0  0  0  0  0  0  0  0  0  0  0
    2.0240    7.2130   -0.7710 N   0  0  0  0  0  0  0  0  0  0  0  0
    4.9720    6.9440   -0.0470 C   0  0  0  0  0  0  0  0  0  0  0  0
    4.7340    8.2240   -0.3060 N   0  0  0  0  0  0  0  0  0  0  0  0
    6.6630    6.5560    0.2240 B   0  0  0  0  0  0  0  0  0  0  0  0
    5.8880    8.9750   -0.3080 C   0  0  0  0  0  0  0  0  0  0  0  0
    7.0210    8.2400   -0.0430 C   0  0  0  0  0  0  0  0  0  0  0  0
    8.3640    8.7730    0.0140 C   0  0  0  0  0  0  0  0  0  0  0  0
    9.7980    7.7780    0.3600 C   0  0  0  0  0  0  0  0  0  0  0  0
    8.7650   10.0780   -0.1800 C   0  0  0  0  0  0  0  0  0  0  0  0
   10.8980    9.1610    0.2310 C   0  0  0  0  0  0  0  0  0  0  0  0
    7.8620   11.5240   -0.5490 S   0  0  0  0  0  0  0  0  0  0  0  0
   10.1360   10.2550   -0.0570 C   0  0  0  0  0  0  0  0  0  0  0  0
    9.4160   12.4100   -0.5360 C   0  0  0  0  0  0  0  0  0  0  0  0
   10.5150   11.6060   -0.2630 C   0  0  0  0  0  0  0  0  0  0  0  0
   -0.9360   -0.7250    0.5340 H   0  0  0  0  0  0  0  0  0  0  0  0
    0.7280   -0.2180    2.3160 H   0  0  0  0  0  0  0  0  0  0  0  0
   -1.1870    0.8160   -1.4060 H   0  0  0  0  0  0  0  0  0  0  0  0
    2.1200    1.8240    2.1730 H   0  0  0  0  0  0  0  0  0  0  0  0
    0.2120    2.8500   -1.5670 H   0  0  0  0  0  0  0  0  0  0  0  0
    3.9460    2.6930    0.8630 H   0  0  0  0  0  0  0  0  0  0  0  0
    5.7940   10.0290   -0.5110 H   0  0  0  0  0  0  0  0  0  0  0  0
   11.9650    9.0650    0.3690 H   0  0  0  0  0  0  0  0  0  0  0  0
    9.4070   13.4740   -0.7330 H   0  0  0  0  0  0  0  0  0  0  0  0
   11.5400   11.9560   -0.2110 H   0  0  0  0  0  0  0  0  0  0  0  0
  1 29  1  0  0  0  0
  1  2  2  0  0  0  0
  2 30  1  0  0  0  0
  3  1  1  0  0  0  0
  4  2  1  0  0  0  0
  4 32  1  0  0  0  0
  5  3  2  0  0  0  0
  5  6  1  0  0  0  0
  6  4  2  0  0  0  0
  7  6  1  0  0  0  0
  7  8  2  0  0  0  0
  8 34  1  0  0  0  0
  9  7  1  0  0  0  0
 10  8  1  0  0  0  0
 11  9  2  0  0  0  0
 12  9  1  0  0  0  0
 12 13  1  0  0  0  0
 13 10  2  0  0  0  0
 14 15  1  0  0  0  0
 14 11  1  0  0  0  0
 15 12  2  0  0  0  0
 16 13  1  0  0  0  0
 16 18  1  0  0  0  0
 17 16  2  0  0  0  0
 19 17  1  0  0  0  0
 19 20  1  0  0  0  0
 20 21  1  0  0  0  0
 20 18  2  0  0  0  0
 21 22  1  0  0  0  0
 23 26  1  0  0  0  0
 23 21  2  0  0  0  0
 24 22  2  0  0  0  0
 24 36  1  0  0  0  0
 25 27  2  0  0  0  0
 25 23  1  0  0  0  0
 26 24  1  0  0  0  0
 27 28  1  0  0  0  0
 28 38  1  0  0  0  0
 28 26  2  0  0  0  0
 31  3  1  0  0  0  0
 33  5  1  0  0  0  0
 35 19  1  0  0  0  0
 37 27  1  0  0  0  0
M  END
$$$$
