@<TRIPOS>MOLECULE
*****
   39    44     1     0     1 
SMALL
USER_CHARGES
@<TRIPOS>ATOM
  1 C       0.000000    0.000000    0.000000 ca    1 LIG    -0.2308 ****
  2 C1      1.387473    0.000000    0.000000 ca    1 LIG     0.0174 ****
  3 C2     -0.647783    1.221074    0.000000 ca    1 LIG     0.1812 ****
  4 C3      2.071513    1.215754    0.008987 ca    1 LIG    -0.2462 ****
  5 N      -0.007376    2.410386    0.006336 nb    1 LIG    -0.3656 ****
  6 C4      1.351440    2.411025    0.028771 DD    1 LIG     0.2569 ****
  7 C5      2.023940    3.714734    0.059201 cp    1 LIG     0.1926 ****
  8 N1      3.094868    3.938760   -0.782327 AA    1 LIG    -0.3484 ****
  9 C6      1.667522    4.775017    0.940783 ca    1 LIG     0.0872 ****
 10 C7      3.751376    5.148245   -0.807801 ca    1 LIG     0.1054 ****
 11 N2      0.708967    4.781511    1.885481 nc    1 LIG    -0.4044 ****
 12 C8      2.435809    6.085575    0.891589 ca    1 LIG     0.2051 ****
 13 C9      3.497047    6.286866   -0.035228 ca    1 LIG    -0.0618 ****
 14 S       0.731174    6.259587    2.611366 ss    1 LIG     0.6065 ****
 15 N3      1.994155    6.960880    1.815501 nc    1 LIG    -0.4969 ****
 16 C10     4.248103    7.545051   -0.153626 cc    1 LIG    -0.1854 ****
 17 S1      3.453569    9.057840    0.065693 BB    1 LIG     0.3090 ****
 18 C11     5.564904    7.771230   -0.499906 ca    1 LIG     0.1504 ****
 19 C12     4.866668   10.003612   -0.191000 EE    1 LIG    -0.2105 ****
 20 N4      6.439087    6.763366   -0.802466 nb    1 LIG    -0.2710 ****
 21 C13     5.928343    9.178002   -0.511866 ca    1 LIG     0.1481 ****
 22 C14     4.836608   11.447940   -0.057950 cc    1 LIG     0.0274 ****
 23 C15     7.666252    7.253303   -1.123171 ca    1 LIG     0.0766 ****
 24 N5      7.178334    9.631180   -0.827204 nb    1 LIG    -0.2650 ****
 25 C16     4.563799   12.382032   -1.044327 CC    1 LIG    -0.1721 ****
 26 S2      5.156612   12.239595    1.440771 ss    1 LIG     0.1727 ****
 27 C17     8.015278    8.606515   -1.136390 ca    1 LIG     0.0602 ****
 28 C18     4.642286   13.728218   -0.576711 cd    1 LIG    -0.0792 ****
 29 C19     4.962729   13.790229    0.759517 cc    1 LIG    -0.2794 ****
 30 H      -0.563348   -0.926744   -0.000000 ha    1 LIG     0.1220 ****
 31 H1      1.936522   -0.937387   -0.002707 ha    1 LIG     0.0985 ****
 32 H2     -1.732005    1.281531   -0.003490 h4    1 LIG     0.0631 ****
 33 H3      3.158475    1.226980    0.012465 ha    1 LIG     0.1258 ****
 34 H4      4.553546    5.165801   -1.546931 h4    1 LIG     0.0668 ****
 35 H5      8.403163    6.499598   -1.386832 h4    1 LIG     0.0803 ****
 36 H6      4.327641   12.116350   -2.067715 ha    1 LIG     0.1177 ****
 37 H7      9.021163    8.906188   -1.412554 h4    1 LIG     0.0818 ****
 38 H8      4.474159   14.605021   -1.189740 ha    1 LIG     0.1136 ****
 39 H9      5.090282   14.671512    1.372525 h4    1 LIG     0.1504 ****
@<TRIPOS>BOND
    1     1     2 1
    2     1     3 1
    3     1    30 1
    4     2     4 1
    5     2    31 1
    6     3     5 1
    7     3    32 1
    8     4     6 1
    9     4    33 1
   10     5     6 1
   11     6     7 1
   12     7     8 1
   13     7     9 1
   14     8    10 1
   15     9    11 1
   16     9    12 1
   17    10    13 1
   18    10    34 1
   19    11    14 1
   20    12    15 1
   21    12    13 1
   22    13    16 1
   23    14    15 1
   24    16    17 1
   25    16    18 1
   26    17    19 1
   27    18    20 1
   28    18    21 1
   29    19    22 1
   30    19    21 1
   31    20    23 1
   32    21    24 1
   33    22    25 1
   34    22    26 1
   35    23    27 1
   36    23    35 1
   37    24    27 1
   38    25    28 1
   39    25    36 1
   40    26    29 1
   41    27    37 1
   42    28    29 1
   43    28    38 1
   44    29    39 1
@<TRIPOS>SUBSTRUCTURE
      1  LIG              1 ****               0 ****  **** 
