@<TRIPOS>MOLECULE
*****
   37    42     1     0     1 
SMALL
USER_CHARGES
@<TRIPOS>ATOM
  1 C       0.000000    0.000000    0.000000 ca    1 LIG     0.1720 ****
  2 C1      1.381012    0.000000    0.000000 ca    1 LIG    -0.2309 ****
  3 N      -0.737889    1.124737    0.000000 nb    1 LIG    -0.3537 ****
  4 C2      2.045740    1.228051    0.012143 ca    1 LIG    -0.0622 ****
  5 C3     -0.061535    2.303321    0.010776 ca    1 LIG     0.1278 ****
  6 C4      1.330670    2.438696    0.022143 DD    1 LIG     0.0177 ****
  7 C5      2.013709    3.742978    0.028411 cp    1 LIG    -0.1396 ****
  8 C6      3.105328    4.071037   -0.792438 AA    1 LIG     0.1234 ****
  9 C7      1.657156    4.831277    0.874220 ca    1 LIG     0.2296 ****
 10 N1      3.817704    5.243614   -0.853396 nb    1 LIG    -0.3766 ****
 11 N2      0.672886    4.838350    1.792337 nc    1 LIG    -0.4654 ****
 12 C8      2.401188    6.158316    0.826091 ca    1 LIG     0.0652 ****
 13 C9      3.495811    6.314683   -0.067519 ca    1 LIG     0.3063 ****
 14 S       0.648452    6.333347    2.491778 ss    1 LIG     0.6116 ****
 15 N3      1.886138    7.063930    1.680328 nc    1 LIG    -0.4371 ****
 16 C10     4.301924    7.519798   -0.189441 cc    1 LIG    -0.2530 ****
 17 S1      3.647288    9.100460   -0.035045 BB    1 LIG     0.2546 ****
 18 C11     5.658105    7.601338   -0.384889 cd    1 LIG    -0.0030 ****
 19 C12     5.154503    9.907588   -0.290368 EE    1 LIG    -0.2248 ****
 20 S2      6.931444    6.322979   -0.598059 ss    1 LIG     0.1670 ****
 21 C13     6.094687    8.931999   -0.438884 cd    1 LIG     0.0892 ****
 22 C14     5.275173   11.348203   -0.310316 cc    1 LIG     0.2441 ****
 23 C15     8.053526    7.660757   -0.742958 cc    1 LIG    -0.2242 ****
 24 C16     7.501121    8.944228   -0.652212 cd    1 LIG    -0.1635 ****
 25 N4      5.149633   12.063840   -1.413713 CC    1 LIG    -0.3613 ****
 26 S3      5.592436   12.285809    1.111423 ss    1 LIG     0.1673 ****
 27 C17     5.315232   13.408341   -1.134133 cd    1 LIG     0.1266 ****
 28 C18     5.564610   13.719121    0.184136 cc    1 LIG    -0.3838 ****
 29 H      -0.564017   -0.928566   -0.000000 h4    1 LIG     0.0640 ****
 30 H1      1.931848   -0.933853   -0.005227 ha    1 LIG     0.1287 ****
 31 H2      3.132244    1.216742    0.029224 ha    1 LIG     0.1039 ****
 32 H3     -0.720104    3.167890   -0.003953 h4    1 LIG     0.0679 ****
 33 H4      3.478986    3.337566   -1.509212 h4    1 LIG     0.0746 ****
 34 H5      9.094274    7.411740   -0.896790 h4    1 LIG     0.1433 ****
 35 H6      8.110700    9.837490   -0.734947 ha    1 LIG     0.1272 ****
 36 H7      5.243190   14.133171   -1.935534 h4    1 LIG     0.0907 ****
 37 H8      5.726119   14.687989    0.634175 h4    1 LIG     0.1762 ****
@<TRIPOS>BOND
    1     1     2 1
    2     1     3 1
    3     1    29 1
    4     2     4 1
    5     2    30 1
    6     3     5 1
    7     4     6 1
    8     4    31 1
    9     5     6 1
   10     5    32 1
   11     6     7 1
   12     7     8 1
   13     7     9 1
   14     8    10 1
   15     8    33 1
   16     9    11 1
   17     9    12 1
   18    10    13 1
   19    11    14 1
   20    12    15 1
   21    12    13 1
   22    13    16 1
   23    14    15 1
   24    16    17 1
   25    16    18 1
   26    17    19 1
   27    18    20 1
   28    18    21 1
   29    19    22 1
   30    19    21 1
   31    20    23 1
   32    21    24 1
   33    22    25 1
   34    22    26 1
   35    23    24 1
   36    23    34 1
   37    24    35 1
   38    25    27 1
   39    26    28 1
   40    27    28 1
   41    27    36 1
   42    28    37 1
@<TRIPOS>SUBSTRUCTURE
      1  LIG              1 ****               0 ****  **** 
