@<TRIPOS>MOLECULE
*****
   38    43     1     0     1 
SMALL
USER_CHARGES
@<TRIPOS>ATOM
  1 C       0.000000    0.000000    0.000000 ca    1 LIG    -0.0934 ****
  2 C1      1.389662    0.000000    0.000000 ca    1 LIG    -0.0888 ****
  3 C2     -0.685757    1.208712    0.000000 ca    1 LIG    -0.0807 ****
  4 C3      2.091935    1.210781    0.011183 ca    1 LIG    -0.1578 ****
  5 C4      0.020091    2.417243   -0.005585 ca    1 LIG    -0.1534 ****
  6 C5      1.426432    2.453644    0.010503 DD    1 LIG     0.1193 ****
  7 C6      2.181980    3.719556   -0.000591 cp    1 LIG    -0.1158 ****
  8 C7      3.284794    3.963622   -0.834868 AA    1 LIG     0.1061 ****
  9 C8      1.887153    4.845682    0.824240 ca    1 LIG     0.2188 ****
 10 N       4.056764    5.093000   -0.932879 nb    1 LIG    -0.3660 ****
 11 N1      0.904306    4.937248    1.740511 nc    1 LIG    -0.4680 ****
 12 C9      2.710273    6.124042    0.746775 ca    1 LIG     0.0834 ****
 13 C10     3.799013    6.192038   -0.155055 ca    1 LIG     0.2058 ****
 14 S       0.975159    6.448524    2.404257 ss    1 LIG     0.6071 ****
 15 N2      2.255069    7.081306    1.577138 nc    1 LIG    -0.4056 ****
 16 C11     4.639531    7.378905   -0.292247 cc    1 LIG     0.1146 ****
 17 N3      5.931503    7.393669   -0.546991 nd    1 LIG    -0.3150 ****
 18 S1      3.933213    8.942171   -0.112788 BB    1 LIG     0.1534 ****
 19 C12     6.395886    8.696074   -0.590403 cd    1 LIG     0.0469 ****
 20 C13     5.460740    9.688959   -0.375764 EE    1 LIG    -0.1238 ****
 21 C14     5.634540   11.120182   -0.356872 cc    1 LIG    -0.0778 ****
 22 S2      5.477410   12.113052   -1.773757 CC    1 LIG     0.2381 ****
 23 C15     5.929660   11.905722    0.730783 cd    1 LIG    -0.0774 ****
 24 C16     5.818449   13.569133   -0.926468 cc    1 LIG    -0.3775 ****
 25 S3      6.230692   11.538512    2.480338 ss    1 LIG     0.1410 ****
 26 C17     6.022165   13.255618    0.366682 cd    1 LIG     0.1311 ****
 27 C18     6.466601   13.269031    2.663334 cc    1 LIG    -0.2081 ****
 28 C19     6.337972   14.038553    1.502610 cd    1 LIG    -0.1761 ****
 29 H      -0.548007   -0.937997    0.000000 ha    1 LIG     0.0980 ****
 30 H1      1.932690   -0.942049   -0.001311 ha    1 LIG     0.1037 ****
 31 H2     -1.772801    1.219199    0.003415 ha    1 LIG     0.1000 ****
 32 H3      3.179407    1.160921    0.032820 ha    1 LIG     0.1020 ****
 33 H4     -0.560372    3.337426   -0.024828 ha    1 LIG     0.1077 ****
 34 H5      3.612746    3.189382   -1.531009 h4    1 LIG     0.0782 ****
 35 H6      7.452140    8.851566   -0.776777 h4    1 LIG     0.0883 ****
 36 H7      5.845304   14.527800   -1.428183 h4    1 LIG     0.1671 ****
 37 H8      6.700452   13.630825    3.655959 h4    1 LIG     0.1423 ****
 38 H9      6.474068   15.112740    1.499644 ha    1 LIG     0.1320 ****
@<TRIPOS>BOND
    1     1     2 1
    2     1     3 1
    3     1    29 1
    4     2     4 1
    5     2    30 1
    6     3     5 1
    7     3    31 1
    8     4     6 1
    9     4    32 1
   10     5     6 1
   11     5    33 1
   12     6     7 1
   13     7     8 1
   14     7     9 1
   15     8    10 1
   16     8    34 1
   17     9    11 1
   18     9    12 1
   19    10    13 1
   20    11    14 1
   21    12    15 1
   22    12    13 1
   23    13    16 1
   24    14    15 1
   25    16    18 1
   26    16    17 1
   27    17    19 1
   28    18    20 1
   29    19    20 1
   30    19    35 1
   31    20    21 1
   32    21    22 1
   33    21    23 1
   34    22    24 1
   35    23    25 1
   36    23    26 1
   37    24    26 1
   38    24    36 1
   39    25    27 1
   40    26    28 1
   41    27    28 1
   42    27    37 1
   43    28    38 1
@<TRIPOS>SUBSTRUCTURE
      1  LIG              1 ****               0 ****  **** 
