scan_sander_basal_param/min_pdbs/min_pdb_C306_000.pdb
 OpenBabel10021702563D

 38 43  0  0  0  0  0  0  0  0999 V2000
   -0.3480    0.2710    0.7980 C   0  0  0  0  0  0  0  0  0  0  0  0
    0.6050    0.6290    1.7630 C   0  0  0  0  0  0  0  0  0  0  0  0
   -0.4840    1.0380   -0.3690 C   0  0  0  0  0  0  0  0  0  0  0  0
    1.4170    1.7570    1.5620 C   0  0  0  0  0  0  0  0  0  0  0  0
    0.3290    2.1660   -0.5660 C   0  0  0  0  0  0  0  0  0  0  0  0
    1.2850    2.5600    0.4020 C   0  0  0  0  0  0  0  0  0  0  0  0
    2.1890    3.7350    0.1900 C   0  0  0  0  0  0  0  0  0  0  0  0
    3.5650    3.6470    0.5060 C   0  0  0  0  0  0  0  0  0  0  0  0
    1.7710    4.9640   -0.3760 C   0  0  0  0  0  0  0  0  0  0  0  0
    4.4490    4.6460    0.3100 N   0  0  0  0  0  0  0  0  0  0  0  0
    0.5000    5.2450   -0.7290 N   0  0  0  0  0  0  0  0  0  0  0  0
    2.6760    6.0010   -0.5770 C   0  0  0  0  0  0  0  0  0  0  0  0
    4.0360    5.8210   -0.2220 C   0  0  0  0  0  0  0  0  0  0  0  0
    0.5400    6.7770   -1.2980 S   0  0  0  0  0  0  0  0  0  0  0  0
    2.1280    7.1170   -1.1080 N   0  0  0  0  0  0  0  0  0  0  0  0
    5.0830    6.8500   -0.3970 C   0  0  0  0  0  0  0  0  0  0  0  0
    4.8870    8.0640   -0.9020 N   0  0  0  0  0  0  0  0  0  0  0  0
    6.7420    6.5060    0.0780 B   0  0  0  0  0  0  0  0  0  0  0  0
    6.0510    8.7980   -0.9410 C   0  0  0  0  0  0  0  0  0  0  0  0
    7.1370    8.1110   -0.4590 C   0  0  0  0  0  0  0  0  0  0  0  0
    8.4450    8.7020   -0.3810 C   0  0  0  0  0  0  0  0  0  0  0  0
    9.9830    7.8580   -0.6620 C   0  0  0  0  0  0  0  0  0  0  0  0
    8.6960   10.0200   -0.0870 C   0  0  0  0  0  0  0  0  0  0  0  0
   10.9290    9.3340   -0.3670 C   0  0  0  0  0  0  0  0  0  0  0  0
    7.6050   11.2990    0.3640 S   0  0  0  0  0  0  0  0  0  0  0  0
   10.0440   10.3320   -0.0740 C   0  0  0  0  0  0  0  0  0  0  0  0
    9.0520   12.3420    0.5330 C   0  0  0  0  0  0  0  0  0  0  0  0
   10.2540   11.6900    0.2780 C   0  0  0  0  0  0  0  0  0  0  0  0
   -0.9770   -0.6020    0.9510 H   0  0  0  0  0  0  0  0  0  0  0  0
    0.7140    0.0330    2.6650 H   0  0  0  0  0  0  0  0  0  0  0  0
   -1.2150    0.7570   -1.1220 H   0  0  0  0  0  0  0  0  0  0  0  0
    2.1460    2.0230    2.3210 H   0  0  0  0  0  0  0  0  0  0  0  0
    0.2230    2.7360   -1.4830 H   0  0  0  0  0  0  0  0  0  0  0  0
    3.9770    2.7280    0.9220 H   0  0  0  0  0  0  0  0  0  0  0  0
    6.0280    9.8010   -1.3470 H   0  0  0  0  0  0  0  0  0  0  0  0
   12.0080    9.3450   -0.4110 H   0  0  0  0  0  0  0  0  0  0  0  0
    8.9110   13.3750    0.8240 H   0  0  0  0  0  0  0  0  0  0  0  0
   11.2340   12.1480    0.3460 H   0  0  0  0  0  0  0  0  0  0  0  0
  1 29  1  0  0  0  0
  1  2  2  0  0  0  0
  2 30  1  0  0  0  0
  3  1  1  0  0  0  0
  4  2  1  0  0  0  0
  4 32  1  0  0  0  0
  5  3  2  0  0  0  0
  5  6  1  0  0  0  0
  6  4  2  0  0  0  0
  7  6  1  0  0  0  0
  7  8  2  0  0  0  0
  8 34  1  0  0  0  0
  9  7  1  0  0  0  0
 10  8  1  0  0  0  0
 11  9  2  0  0  0  0
 12  9  1  0  0  0  0
 12 13  1  0  0  0  0
 13 10  2  0  0  0  0
 14 15  1  0  0  0  0
 14 11  1  0  0  0  0
 15 12  2  0  0  0  0
 16 13  1  0  0  0  0
 16 18  1  0  0  0  0
 17 16  2  0  0  0  0
 19 17  1  0  0  0  0
 19 20  1  0  0  0  0
 20 21  1  0  0  0  0
 20 18  2  0  0  0  0
 21 23  1  0  0  0  0
 22 21  2  0  0  0  0
 22 24  1  0  0  0  0
 23 26  1  0  0  0  0
 23 25  2  0  0  0  0
 24 26  2  0  0  0  0
 25 27  1  0  0  0  0
 26 28  1  0  0  0  0
 27 37  1  0  0  0  0
 28 38  1  0  0  0  0
 28 27  2  0  0  0  0
 31  3  1  0  0  0  0
 33  5  1  0  0  0  0
 35 19  1  0  0  0  0
 36 24  1  0  0  0  0
M  END
$$$$
scan_sander_basal_param/min_pdbs/min_pdb_C306_015.pdb
 OpenBabel10021702563D

 38 43  0  0  0  0  0  0  0  0999 V2000
   -0.3230    0.2650    0.8410 C   0  0  0  0  0  0  0  0  0  0  0  0
    0.5510    0.7040    1.8460 C   0  0  0  0  0  0  0  0  0  0  0  0
   -0.3900    0.9560   -0.3780 C   0  0  0  0  0  0  0  0  0  0  0  0
    1.3540    1.8370    1.6320 C   0  0  0  0  0  0  0  0  0  0  0  0
    0.4130    2.0880   -0.5890 C   0  0  0  0  0  0  0  0  0  0  0  0
    1.2910    2.5630    0.4170 C   0  0  0  0  0  0  0  0  0  0  0  0
    2.1850    3.7440    0.1950 C   0  0  0  0  0  0  0  0  0  0  0  0
    3.5370    3.7070    0.6120 C   0  0  0  0  0  0  0  0  0  0  0  0
    1.7860    4.9260   -0.4750 C   0  0  0  0  0  0  0  0  0  0  0  0
    4.4140    4.7120    0.4160 N   0  0  0  0  0  0  0  0  0  0  0  0
    0.5400    5.1540   -0.9390 N   0  0  0  0  0  0  0  0  0  0  0  0
    2.6830    5.9680   -0.6760 C   0  0  0  0  0  0  0  0  0  0  0  0
    4.0170    5.8420   -0.2150 C   0  0  0  0  0  0  0  0  0  0  0  0
    0.5970    6.6460   -1.6060 S   0  0  0  0  0  0  0  0  0  0  0  0
    2.1610    7.0310   -1.3280 N   0  0  0  0  0  0  0  0  0  0  0  0
    5.0450    6.8890   -0.3710 C   0  0  0  0  0  0  0  0  0  0  0  0
    4.8040    8.1560   -0.6920 N   0  0  0  0  0  0  0  0  0  0  0  0
    6.7420    6.4950   -0.1230 B   0  0  0  0  0  0  0  0  0  0  0  0
    5.9630    8.8950   -0.7660 C   0  0  0  0  0  0  0  0  0  0  0  0
    7.0900    8.1570   -0.4970 C   0  0  0  0  0  0  0  0  0  0  0  0
    8.4040    8.7400   -0.4920 C   0  0  0  0  0  0  0  0  0  0  0  0
    9.8920    7.9440   -1.0460 C   0  0  0  0  0  0  0  0  0  0  0  0
    8.6980   10.0110   -0.0670 C   0  0  0  0  0  0  0  0  0  0  0  0
   10.8790    9.3760   -0.6780 C   0  0  0  0  0  0  0  0  0  0  0  0
    7.6780   11.2200    0.6590 S   0  0  0  0  0  0  0  0  0  0  0  0
   10.0420   10.3250   -0.1670 C   0  0  0  0  0  0  0  0  0  0  0  0
    9.1450   12.2400    0.7920 C   0  0  0  0  0  0  0  0  0  0  0  0
   10.3030   11.6300    0.3260 C   0  0  0  0  0  0  0  0  0  0  0  0
   -0.9450   -0.6110    1.0050 H   0  0  0  0  0  0  0  0  0  0  0  0
    0.6070    0.1680    2.7900 H   0  0  0  0  0  0  0  0  0  0  0  0
   -1.0600    0.6120   -1.1620 H   0  0  0  0  0  0  0  0  0  0  0  0
    2.0220    2.1660    2.4220 H   0  0  0  0  0  0  0  0  0  0  0  0
    0.3630    2.5980   -1.5450 H   0  0  0  0  0  0  0  0  0  0  0  0
    3.9350    2.8250    1.1130 H   0  0  0  0  0  0  0  0  0  0  0  0
    5.9050    9.9400   -1.0360 H   0  0  0  0  0  0  0  0  0  0  0  0
   11.9470    9.3960   -0.8420 H   0  0  0  0  0  0  0  0  0  0  0  0
    9.0470   13.2280    1.2230 H   0  0  0  0  0  0  0  0  0  0  0  0
   11.2890   12.0800    0.3390 H   0  0  0  0  0  0  0  0  0  0  0  0
  1 29  1  0  0  0  0
  1  2  2  0  0  0  0
  2 30  1  0  0  0  0
  3  1  1  0  0  0  0
  4  2  1  0  0  0  0
  4 32  1  0  0  0  0
  5  3  2  0  0  0  0
  5  6  1  0  0  0  0
  6  4  2  0  0  0  0
  7  6  1  0  0  0  0
  7  8  2  0  0  0  0
  8 34  1  0  0  0  0
  9  7  1  0  0  0  0
 10  8  1  0  0  0  0
 11  9  2  0  0  0  0
 12  9  1  0  0  0  0
 12 13  1  0  0  0  0
 13 10  2  0  0  0  0
 14 15  1  0  0  0  0
 14 11  1  0  0  0  0
 15 12  2  0  0  0  0
 16 13  1  0  0  0  0
 16 18  1  0  0  0  0
 17 16  2  0  0  0  0
 19 17  1  0  0  0  0
 19 20  1  0  0  0  0
 20 21  1  0  0  0  0
 20 18  2  0  0  0  0
 21 23  2  0  0  0  0
 22 24  2  0  0  0  0
 22 21  1  0  0  0  0
 23 25  1  0  0  0  0
 24 26  1  0  0  0  0
 25 27  2  0  0  0  0
 26 23  1  0  0  0  0
 26 28  2  0  0  0  0
 27 37  1  0  0  0  0
 28 38  1  0  0  0  0
 28 27  1  0  0  0  0
 31  3  1  0  0  0  0
 33  5  1  0  0  0  0
 35 19  1  0  0  0  0
 36 24  1  0  0  0  0
M  END
$$$$
scan_sander_basal_param/min_pdbs/min_pdb_C306_030.pdb
 OpenBabel10021702563D

 38 43  0  0  0  0  0  0  0  0999 V2000
   -0.3160    0.2770    0.8890 C   0  0  0  0  0  0  0  0  0  0  0  0
    0.4760    0.7970    1.9230 C   0  0  0  0  0  0  0  0  0  0  0  0
   -0.2990    0.8830   -0.3760 C   0  0  0  0  0  0  0  0  0  0  0  0
    1.2790    1.9260    1.6930 C   0  0  0  0  0  0  0  0  0  0  0  0
    0.5040    2.0120   -0.6030 C   0  0  0  0  0  0  0  0  0  0  0  0
    1.2980    2.5680    0.4300 C   0  0  0  0  0  0  0  0  0  0  0  0
    2.1920    3.7470    0.1960 C   0  0  0  0  0  0  0  0  0  0  0  0
    3.5090    3.7610    0.7130 C   0  0  0  0  0  0  0  0  0  0  0  0
    1.8280    4.8750   -0.5810 C   0  0  0  0  0  0  0  0  0  0  0  0
    4.3860    4.7680    0.5190 N   0  0  0  0  0  0  0  0  0  0  0  0
    0.6200    5.0520   -1.1550 N   0  0  0  0  0  0  0  0  0  0  0  0
    2.7240    5.9170   -0.7810 C   0  0  0  0  0  0  0  0  0  0  0  0
    4.0170    5.8450   -0.2120 C   0  0  0  0  0  0  0  0  0  0  0  0
    0.7140    6.4980   -1.9140 S   0  0  0  0  0  0  0  0  0  0  0  0
    2.2490    6.9260   -1.5450 N   0  0  0  0  0  0  0  0  0  0  0  0
    5.0250    6.9080   -0.3540 C   0  0  0  0  0  0  0  0  0  0  0  0
    4.7470    8.2000   -0.4900 N   0  0  0  0  0  0  0  0  0  0  0  0
    6.7330    6.5000   -0.3380 B   0  0  0  0  0  0  0  0  0  0  0  0
    5.8950    8.9530   -0.5950 C   0  0  0  0  0  0  0  0  0  0  0  0
    7.0420    8.2000   -0.5380 C   0  0  0  0  0  0  0  0  0  0  0  0
    8.3510    8.7910   -0.5970 C   0  0  0  0  0  0  0  0  0  0  0  0
    9.7720    8.0870   -1.3960 C   0  0  0  0  0  0  0  0  0  0  0  0
    8.6900   10.0040   -0.0510 C   0  0  0  0  0  0  0  0  0  0  0  0
   10.7950    9.4730   -0.9570 C   0  0  0  0  0  0  0  0  0  0  0  0
    7.7530   11.1020    0.9220 S   0  0  0  0  0  0  0  0  0  0  0  0
   10.0170   10.3430   -0.2480 C   0  0  0  0  0  0  0  0  0  0  0  0
    9.2280   12.1130    1.0300 C   0  0  0  0  0  0  0  0  0  0  0  0
   10.3310   11.5780    0.3740 C   0  0  0  0  0  0  0  0  0  0  0  0
   -0.9370   -0.5970    1.0650 H   0  0  0  0  0  0  0  0  0  0  0  0
    0.4680    0.3260    2.9030 H   0  0  0  0  0  0  0  0  0  0  0  0
   -0.9050    0.4760   -1.1820 H   0  0  0  0  0  0  0  0  0  0  0  0
    1.8820    2.3190    2.5060 H   0  0  0  0  0  0  0  0  0  0  0  0
    0.5190    2.4570   -1.5930 H   0  0  0  0  0  0  0  0  0  0  0  0
    3.8790    2.9210    1.3000 H   0  0  0  0  0  0  0  0  0  0  0  0
    5.8120   10.0240   -0.7280 H   0  0  0  0  0  0  0  0  0  0  0  0
   11.8410    9.5250   -1.2250 H   0  0  0  0  0  0  0  0  0  0  0  0
    9.1780   13.0390    1.5890 H   0  0  0  0  0  0  0  0  0  0  0  0
   11.3140   12.0340    0.3430 H   0  0  0  0  0  0  0  0  0  0  0  0
  1 29  1  0  0  0  0
  1  2  2  0  0  0  0
  2 30  1  0  0  0  0
  3  1  1  0  0  0  0
  4  2  1  0  0  0  0
  4 32  1  0  0  0  0
  5  3  2  0  0  0  0
  5  6  1  0  0  0  0
  6  4  2  0  0  0  0
  7  6  1  0  0  0  0
  7  8  2  0  0  0  0
  8 34  1  0  0  0  0
  9  7  1  0  0  0  0
 10  8  1  0  0  0  0
 11  9  2  0  0  0  0
 12  9  1  0  0  0  0
 12 13  1  0  0  0  0
 13 10  2  0  0  0  0
 14 15  1  0  0  0  0
 14 11  1  0  0  0  0
 15 12  2  0  0  0  0
 16 18  1  0  0  0  0
 16 13  1  0  0  0  0
 17 16  2  0  0  0  0
 19 20  1  0  0  0  0
 19 17  1  0  0  0  0
 20 18  2  0  0  0  0
 21 20  1  0  0  0  0
 21 23  2  0  0  0  0
 22 24  2  0  0  0  0
 22 21  1  0  0  0  0
 23 25  1  0  0  0  0
 24 26  1  0  0  0  0
 25 27  2  0  0  0  0
 26 23  1  0  0  0  0
 26 28  2  0  0  0  0
 27 37  1  0  0  0  0
 28 27  1  0  0  0  0
 31  3  1  0  0  0  0
 33  5  1  0  0  0  0
 35 19  1  0  0  0  0
 36 24  1  0  0  0  0
 38 28  1  0  0  0  0
M  END
$$$$
scan_sander_basal_param/min_pdbs/min_pdb_C306_045.pdb
 OpenBabel10021702563D

 38 43  0  0  0  0  0  0  0  0999 V2000
   -0.3360    0.2920    0.8640 C   0  0  0  0  0  0  0  0  0  0  0  0
    0.3590    0.8750    1.9330 C   0  0  0  0  0  0  0  0  0  0  0  0
   -0.2180    0.8330   -0.4250 C   0  0  0  0  0  0  0  0  0  0  0  0
    1.1670    2.0020    1.7130 C   0  0  0  0  0  0  0  0  0  0  0  0
    0.5910    1.9610   -0.6410 C   0  0  0  0  0  0  0  0  0  0  0  0
    1.2880    2.5800    0.4260 C   0  0  0  0  0  0  0  0  0  0  0  0
    2.1860    3.7580    0.2060 C   0  0  0  0  0  0  0  0  0  0  0  0
    3.4550    3.8180    0.8330 C   0  0  0  0  0  0  0  0  0  0  0  0
    1.8780    4.8390   -0.6560 C   0  0  0  0  0  0  0  0  0  0  0  0
    4.3360    4.8250    0.6620 N   0  0  0  0  0  0  0  0  0  0  0  0
    0.7230    4.9720   -1.3410 N   0  0  0  0  0  0  0  0  0  0  0  0
    2.7770    5.8810   -0.8330 C   0  0  0  0  0  0  0  0  0  0  0  0
    4.0140    5.8560   -0.1540 C   0  0  0  0  0  0  0  0  0  0  0  0
    0.8720    6.3810   -2.1600 S   0  0  0  0  0  0  0  0  0  0  0  0
    2.3670    6.8460   -1.6850 N   0  0  0  0  0  0  0  0  0  0  0  0
    5.0070    6.9270   -0.2780 C   0  0  0  0  0  0  0  0  0  0  0  0
    4.7190    8.2220   -0.2270 N   0  0  0  0  0  0  0  0  0  0  0  0
    6.7000    6.5250   -0.5020 B   0  0  0  0  0  0  0  0  0  0  0  0
    5.8540    8.9890   -0.3720 C   0  0  0  0  0  0  0  0  0  0  0  0
    6.9940    8.2400   -0.5350 C   0  0  0  0  0  0  0  0  0  0  0  0
    8.2920    8.8430   -0.6730 C   0  0  0  0  0  0  0  0  0  0  0  0
    9.6080    8.2460   -1.7070 C   0  0  0  0  0  0  0  0  0  0  0  0
    8.7010    9.9850   -0.0300 C   0  0  0  0  0  0  0  0  0  0  0  0
   10.6840    9.5770   -1.2280 C   0  0  0  0  0  0  0  0  0  0  0  0
    7.8890   10.9550    1.1660 S   0  0  0  0  0  0  0  0  0  0  0  0
    9.9990   10.3530   -0.3370 C   0  0  0  0  0  0  0  0  0  0  0  0
    9.3740   11.9560    1.2220 C   0  0  0  0  0  0  0  0  0  0  0  0
   10.3900   11.5090    0.3860 C   0  0  0  0  0  0  0  0  0  0  0  0
   -0.9620   -0.5810    1.0320 H   0  0  0  0  0  0  0  0  0  0  0  0
    0.2720    0.4550    2.9320 H   0  0  0  0  0  0  0  0  0  0  0  0
   -0.7480    0.3770   -1.2570 H   0  0  0  0  0  0  0  0  0  0  0  0
    1.6950    2.4450    2.5530 H   0  0  0  0  0  0  0  0  0  0  0  0
    0.6850    2.3550   -1.6480 H   0  0  0  0  0  0  0  0  0  0  0  0
    3.7820    3.0140    1.4920 H   0  0  0  0  0  0  0  0  0  0  0  0
    5.7650   10.0670   -0.3680 H   0  0  0  0  0  0  0  0  0  0  0  0
   11.6930    9.6670   -1.6050 H   0  0  0  0  0  0  0  0  0  0  0  0
    9.3940   12.8090    1.8880 H   0  0  0  0  0  0  0  0  0  0  0  0
   11.3670   11.9710    0.2960 H   0  0  0  0  0  0  0  0  0  0  0  0
  1 29  1  0  0  0  0
  1  2  2  0  0  0  0
  2 30  1  0  0  0  0
  3  1  1  0  0  0  0
  4  2  1  0  0  0  0
  4 32  1  0  0  0  0
  5  3  2  0  0  0  0
  5  6  1  0  0  0  0
  6  4  2  0  0  0  0
  7  6  1  0  0  0  0
  7  8  2  0  0  0  0
  8 34  1  0  0  0  0
  9  7  1  0  0  0  0
 10  8  1  0  0  0  0
 11  9  2  0  0  0  0
 12  9  1  0  0  0  0
 12 13  1  0  0  0  0
 13 10  2  0  0  0  0
 14 15  1  0  0  0  0
 14 11  1  0  0  0  0
 15 12  2  0  0  0  0
 16 17  2  0  0  0  0
 16 13  1  0  0  0  0
 18 16  1  0  0  0  0
 19 35  1  0  0  0  0
 19 17  1  0  0  0  0
 20 18  2  0  0  0  0
 20 19  1  0  0  0  0
 21 20  1  0  0  0  0
 21 23  2  0  0  0  0
 22 24  2  0  0  0  0
 22 21  1  0  0  0  0
 23 25  1  0  0  0  0
 24 26  1  0  0  0  0
 25 27  2  0  0  0  0
 26 23  1  0  0  0  0
 26 28  2  0  0  0  0
 27 37  1  0  0  0  0
 28 27  1  0  0  0  0
 31  3  1  0  0  0  0
 33  5  1  0  0  0  0
 36 24  1  0  0  0  0
 38 28  1  0  0  0  0
M  END
$$$$
scan_sander_basal_param/min_pdbs/min_pdb_C306_060.pdb
 OpenBabel10021702563D

 38 43  0  0  0  0  0  0  0  0999 V2000
   -0.3460    0.2990    0.8590 C   0  0  0  0  0  0  0  0  0  0  0  0
    0.2380    0.9590    1.9500 C   0  0  0  0  0  0  0  0  0  0  0  0
   -0.1130    0.7620   -0.4450 C   0  0  0  0  0  0  0  0  0  0  0  0
    1.0500    2.0850    1.7360 C   0  0  0  0  0  0  0  0  0  0  0  0
    0.6990    1.8880   -0.6550 C   0  0  0  0  0  0  0  0  0  0  0  0
    1.2850    2.5840    0.4310 C   0  0  0  0  0  0  0  0  0  0  0  0
    2.1870    3.7610    0.2230 C   0  0  0  0  0  0  0  0  0  0  0  0
    3.3910    3.8820    0.9600 C   0  0  0  0  0  0  0  0  0  0  0  0
    1.9480    4.7810   -0.7320 C   0  0  0  0  0  0  0  0  0  0  0  0
    4.2730    4.8930    0.8100 N   0  0  0  0  0  0  0  0  0  0  0  0
    0.8630    4.8540   -1.5300 N   0  0  0  0  0  0  0  0  0  0  0  0
    2.8480    5.8250   -0.8880 C   0  0  0  0  0  0  0  0  0  0  0  0
    4.0110    5.8630   -0.0950 C   0  0  0  0  0  0  0  0  0  0  0  0
    1.0740    6.2150   -2.4140 S   0  0  0  0  0  0  0  0  0  0  0  0
    2.5120    6.7330   -1.8300 N   0  0  0  0  0  0  0  0  0  0  0  0
    4.9910    6.9430   -0.2070 C   0  0  0  0  0  0  0  0  0  0  0  0
    4.7090    8.2220    0.0090 N   0  0  0  0  0  0  0  0  0  0  0  0
    6.6450    6.5770   -0.6530 B   0  0  0  0  0  0  0  0  0  0  0  0
    5.8250    9.0080   -0.1730 C   0  0  0  0  0  0  0  0  0  0  0  0
    6.9400    8.2880   -0.5340 C   0  0  0  0  0  0  0  0  0  0  0  0
    8.2190    8.9120   -0.7410 C   0  0  0  0  0  0  0  0  0  0  0  0
    9.4170    8.4390   -1.9640 C   0  0  0  0  0  0  0  0  0  0  0  0
    8.6960    9.9820   -0.0260 C   0  0  0  0  0  0  0  0  0  0  0  0
   10.5420    9.7190   -1.4600 C   0  0  0  0  0  0  0  0  0  0  0  0
    8.0170   10.8130    1.3450 S   0  0  0  0  0  0  0  0  0  0  0  0
    9.9560   10.3900   -0.4260 C   0  0  0  0  0  0  0  0  0  0  0  0
    9.5040   11.8130    1.3530 C   0  0  0  0  0  0  0  0  0  0  0  0
   10.4260   11.4650    0.3720 C   0  0  0  0  0  0  0  0  0  0  0  0
   -0.9750   -0.5720    1.0230 H   0  0  0  0  0  0  0  0  0  0  0  0
    0.0620    0.6000    2.9600 H   0  0  0  0  0  0  0  0  0  0  0  0
   -0.5570    0.2460   -1.2920 H   0  0  0  0  0  0  0  0  0  0  0  0
    1.4910    2.5870    2.5920 H   0  0  0  0  0  0  0  0  0  0  0  0
    0.8840    2.2210   -1.6720 H   0  0  0  0  0  0  0  0  0  0  0  0
    3.6640    3.1260    1.6960 H   0  0  0  0  0  0  0  0  0  0  0  0
    5.7420   10.0790   -0.0460 H   0  0  0  0  0  0  0  0  0  0  0  0
   11.5060    9.8560   -1.9290 H   0  0  0  0  0  0  0  0  0  0  0  0
    9.5970   12.5900    2.1010 H   0  0  0  0  0  0  0  0  0  0  0  0
   11.3900   11.9420    0.2310 H   0  0  0  0  0  0  0  0  0  0  0  0
  1 29  1  0  0  0  0
  1  2  2  0  0  0  0
  2 30  1  0  0  0  0
  3  1  1  0  0  0  0
  4  2  1  0  0  0  0
  4 32  1  0  0  0  0
  5  3  2  0  0  0  0
  5  6  1  0  0  0  0
  6  4  2  0  0  0  0
  7  6  1  0  0  0  0
  7  8  2  0  0  0  0
  8 34  1  0  0  0  0
  9  7  1  0  0  0  0
 10  8  1  0  0  0  0
 11  9  2  0  0  0  0
 12  9  1  0  0  0  0
 12 13  1  0  0  0  0
 13 10  2  0  0  0  0
 14 15  1  0  0  0  0
 14 11  1  0  0  0  0
 15 12  2  0  0  0  0
 16 13  1  0  0  0  0
 16 17  2  0  0  0  0
 18 20  2  0  0  0  0
 18 16  1  0  0  0  0
 19 35  1  0  0  0  0
 19 17  1  0  0  0  0
 20 19  1  0  0  0  0
 21 20  1  0  0  0  0
 21 23  2  0  0  0  0
 22 24  2  0  0  0  0
 22 21  1  0  0  0  0
 23 25  1  0  0  0  0
 24 26  1  0  0  0  0
 25 27  2  0  0  0  0
 26 23  1  0  0  0  0
 26 28  2  0  0  0  0
 27 37  1  0  0  0  0
 28 27  1  0  0  0  0
 31  3  1  0  0  0  0
 33  5  1  0  0  0  0
 36 24  1  0  0  0  0
 38 28  1  0  0  0  0
M  END
$$$$
scan_sander_basal_param/min_pdbs/min_pdb_C306_075.pdb
 OpenBabel10021702563D

 38 43  0  0  0  0  0  0  0  0999 V2000
   -0.7990    0.6930   -0.6510 C   0  0  0  0  0  0  0  0  0  0  0  0
    0.4490    0.5720   -1.2800 C   0  0  0  0  0  0  0  0  0  0  0  0
   -1.0440    1.7680    0.2160 C   0  0  0  0  0  0  0  0  0  0  0  0
    1.4530    1.5230   -1.0360 C   0  0  0  0  0  0  0  0  0  0  0  0
   -0.0370    2.7170    0.4590 C   0  0  0  0  0  0  0  0  0  0  0  0
    1.2380    2.6060   -0.1490 C   0  0  0  0  0  0  0  0  0  0  0  0
    2.3090    3.6310    0.0670 C   0  0  0  0  0  0  0  0  0  0  0  0
    3.0780    4.1060   -1.0260 C   0  0  0  0  0  0  0  0  0  0  0  0
    2.5910    4.2270    1.3210 C   0  0  0  0  0  0  0  0  0  0  0  0
    4.0380    5.0490   -0.9230 N   0  0  0  0  0  0  0  0  0  0  0  0
    1.9800    3.9170    2.4820 N   0  0  0  0  0  0  0  0  0  0  0  0
    3.5790    5.1940    1.4330 C   0  0  0  0  0  0  0  0  0  0  0  0
    4.3000    5.5860    0.2900 C   0  0  0  0  0  0  0  0  0  0  0  0
    2.6900    4.8720    3.6060 S   0  0  0  0  0  0  0  0  0  0  0  0
    3.7590    5.6900    2.6760 N   0  0  0  0  0  0  0  0  0  0  0  0
    5.3510    6.5980    0.3590 C   0  0  0  0  0  0  0  0  0  0  0  0
    6.5550    6.3740    0.8680 N   0  0  0  0  0  0  0  0  0  0  0  0
    5.0430    8.2150   -0.2370 B   0  0  0  0  0  0  0  0  0  0  0  0
    7.3300    7.5100    0.8070 C   0  0  0  0  0  0  0  0  0  0  0  0
    6.6740    8.5830    0.2500 C   0  0  0  0  0  0  0  0  0  0  0  0
    7.3130    9.8560    0.0620 C   0  0  0  0  0  0  0  0  0  0  0  0
    6.5340   11.4440    0.2340 C   0  0  0  0  0  0  0  0  0  0  0  0
    8.6350   10.0310   -0.2670 C   0  0  0  0  0  0  0  0  0  0  0  0
    8.0400   12.3040   -0.1530 C   0  0  0  0  0  0  0  0  0  0  0  0
    9.8630    8.8590   -0.6520 S   0  0  0  0  0  0  0  0  0  0  0  0
    8.9980   11.3610   -0.3900 C   0  0  0  0  0  0  0  0  0  0  0  0
   10.9580   10.2470   -0.9480 C   0  0  0  0  0  0  0  0  0  0  0  0
   10.3570   11.4890   -0.7770 C   0  0  0  0  0  0  0  0  0  0  0  0
   -1.5770   -0.0410   -0.8400 H   0  0  0  0  0  0  0  0  0  0  0  0
    0.6380   -0.2580   -1.9560 H   0  0  0  0  0  0  0  0  0  0  0  0
   -2.0130    1.8690    0.6970 H   0  0  0  0  0  0  0  0  0  0  0  0
    2.4150    1.4120   -1.5270 H   0  0  0  0  0  0  0  0  0  0  0  0
   -0.2500    3.5520    1.1180 H   0  0  0  0  0  0  0  0  0  0  0  0
    2.9050    3.7190   -2.0300 H   0  0  0  0  0  0  0  0  0  0  0  0
    8.3380    7.4820    1.1990 H   0  0  0  0  0  0  0  0  0  0  0  0
    8.0930   13.3830   -0.1950 H   0  0  0  0  0  0  0  0  0  0  0  0
   11.9790   10.0430   -1.2430 H   0  0  0  0  0  0  0  0  0  0  0  0
   10.8510   12.4420   -0.9290 H   0  0  0  0  0  0  0  0  0  0  0  0
  1  3  2  0  0  0  0
  2  4  2  0  0  0  0
  2  1  1  0  0  0  0
  3  5  1  0  0  0  0
  3 31  1  0  0  0  0
  4  6  1  0  0  0  0
  5 33  1  0  0  0  0
  6  7  1  0  0  0  0
  6  5  2  0  0  0  0
  7  9  1  0  0  0  0
  8 10  1  0  0  0  0
  8  7  2  0  0  0  0
  9 12  1  0  0  0  0
  9 11  2  0  0  0  0
 10 13  2  0  0  0  0
 11 14  1  0  0  0  0
 12 15  2  0  0  0  0
 13 16  1  0  0  0  0
 13 12  1  0  0  0  0
 15 14  1  0  0  0  0
 16 17  2  0  0  0  0
 18 20  2  0  0  0  0
 18 16  1  0  0  0  0
 19 17  1  0  0  0  0
 19 35  1  0  0  0  0
 20 19  1  0  0  0  0
 21 22  2  0  0  0  0
 21 20  1  0  0  0  0
 23 21  1  0  0  0  0
 24 22  1  0  0  0  0
 25 23  2  0  0  0  0
 26 23  1  0  0  0  0
 26 24  2  0  0  0  0
 27 28  2  0  0  0  0
 27 25  1  0  0  0  0
 28 26  1  0  0  0  0
 29  1  1  0  0  0  0
 30  2  1  0  0  0  0
 32  4  1  0  0  0  0
 34  8  1  0  0  0  0
 36 24  1  0  0  0  0
 37 27  1  0  0  0  0
 38 28  1  0  0  0  0
M  END
$$$$
scan_sander_basal_param/min_pdbs/min_pdb_C306_090.pdb
 OpenBabel10021702563D

 38 43  0  0  0  0  0  0  0  0999 V2000
   -0.8180    0.7010   -0.6180 C   0  0  0  0  0  0  0  0  0  0  0  0
    0.4600    0.5080   -1.1620 C   0  0  0  0  0  0  0  0  0  0  0  0
   -1.0840    1.8430    0.1520 C   0  0  0  0  0  0  0  0  0  0  0  0
    1.4720    1.4530   -0.9300 C   0  0  0  0  0  0  0  0  0  0  0  0
   -0.0700    2.7870    0.3830 C   0  0  0  0  0  0  0  0  0  0  0  0
    1.2350    2.6040   -0.1390 C   0  0  0  0  0  0  0  0  0  0  0  0
    2.3170    3.6190    0.0630 C   0  0  0  0  0  0  0  0  0  0  0  0
    3.1580    3.9960   -1.0140 C   0  0  0  0  0  0  0  0  0  0  0  0
    2.5420    4.3020    1.2840 C   0  0  0  0  0  0  0  0  0  0  0  0
    4.1340    4.9240   -0.9250 N   0  0  0  0  0  0  0  0  0  0  0  0
    1.8580    4.0930    2.4280 N   0  0  0  0  0  0  0  0  0  0  0  0
    3.5450    5.2540    1.3830 C   0  0  0  0  0  0  0  0  0  0  0  0
    4.3400    5.5430    0.2590 C   0  0  0  0  0  0  0  0  0  0  0  0
    2.5270    5.1140    3.5190 S   0  0  0  0  0  0  0  0  0  0  0  0
    3.6690    5.8370    2.5950 N   0  0  0  0  0  0  0  0  0  0  0  0
    5.4040    6.5410    0.3200 C   0  0  0  0  0  0  0  0  0  0  0  0
    6.6560    6.2600    0.6560 N   0  0  0  0  0  0  0  0  0  0  0  0
    5.0470    8.2170   -0.0370 B   0  0  0  0  0  0  0  0  0  0  0  0
    7.4320    7.3980    0.6400 C   0  0  0  0  0  0  0  0  0  0  0  0
    6.7280    8.5280    0.2950 C   0  0  0  0  0  0  0  0  0  0  0  0
    7.3560    9.8160    0.1870 C   0  0  0  0  0  0  0  0  0  0  0  0
    6.6210   11.3690    0.6370 C   0  0  0  0  0  0  0  0  0  0  0  0
    8.6310   10.0320   -0.2720 C   0  0  0  0  0  0  0  0  0  0  0  0
    8.0810   12.2740    0.1800 C   0  0  0  0  0  0  0  0  0  0  0  0
    9.7930    8.9170   -0.9360 S   0  0  0  0  0  0  0  0  0  0  0  0
    8.9940   11.3670   -0.2780 C   0  0  0  0  0  0  0  0  0  0  0  0
   10.8610   10.3330   -1.1910 C   0  0  0  0  0  0  0  0  0  0  0  0
   10.2990   11.5440   -0.8050 C   0  0  0  0  0  0  0  0  0  0  0  0
   -1.6020   -0.0290   -0.7980 H   0  0  0  0  0  0  0  0  0  0  0  0
    0.6670   -0.3740   -1.7630 H   0  0  0  0  0  0  0  0  0  0  0  0
   -2.0770    2.0000    0.5660 H   0  0  0  0  0  0  0  0  0  0  0  0
    2.4580    1.2860   -1.3540 H   0  0  0  0  0  0  0  0  0  0  0  0
   -0.2990    3.6730    0.9660 H   0  0  0  0  0  0  0  0  0  0  0  0
    3.0340    3.5390   -1.9960 H   0  0  0  0  0  0  0  0  0  0  0  0
    8.4780    7.3260    0.9050 H   0  0  0  0  0  0  0  0  0  0  0  0
    8.1410   13.3500    0.2620 H   0  0  0  0  0  0  0  0  0  0  0  0
   11.8390   10.1680   -1.6260 H   0  0  0  0  0  0  0  0  0  0  0  0
   10.7830   12.5100   -0.8980 H   0  0  0  0  0  0  0  0  0  0  0  0
  1  3  2  0  0  0  0
  2  4  2  0  0  0  0
  2  1  1  0  0  0  0
  3  5  1  0  0  0  0
  3 31  1  0  0  0  0
  4  6  1  0  0  0  0
  5 33  1  0  0  0  0
  6  7  1  0  0  0  0
  6  5  2  0  0  0  0
  7  9  1  0  0  0  0
  8 10  1  0  0  0  0
  8  7  2  0  0  0  0
  9 12  1  0  0  0  0
  9 11  2  0  0  0  0
 10 13  2  0  0  0  0
 11 14  1  0  0  0  0
 12 15  2  0  0  0  0
 13 16  1  0  0  0  0
 13 12  1  0  0  0  0
 15 14  1  0  0  0  0
 16 17  2  0  0  0  0
 18 20  2  0  0  0  0
 18 16  1  0  0  0  0
 19 17  1  0  0  0  0
 19 35  1  0  0  0  0
 20 19  1  0  0  0  0
 21 20  1  0  0  0  0
 21 22  1  0  0  0  0
 23 21  2  0  0  0  0
 24 36  1  0  0  0  0
 24 22  2  0  0  0  0
 25 23  1  0  0  0  0
 26 23  1  0  0  0  0
 26 24  1  0  0  0  0
 27 25  2  0  0  0  0
 27 28  1  0  0  0  0
 28 26  2  0  0  0  0
 29  1  1  0  0  0  0
 30  2  1  0  0  0  0
 32  4  1  0  0  0  0
 34  8  1  0  0  0  0
 37 27  1  0  0  0  0
 38 28  1  0  0  0  0
M  END
$$$$
scan_sander_basal_param/min_pdbs/min_pdb_C306_105.pdb
 OpenBabel10021702563D

 38 43  0  0  0  0  0  0  0  0999 V2000
   -0.8290    0.6990   -0.5800 C   0  0  0  0  0  0  0  0  0  0  0  0
    0.4730    0.4470   -1.0380 C   0  0  0  0  0  0  0  0  0  0  0  0
   -1.1140    1.8970    0.0930 C   0  0  0  0  0  0  0  0  0  0  0  0
    1.4890    1.3920   -0.8190 C   0  0  0  0  0  0  0  0  0  0  0  0
   -0.0950    2.8390    0.3110 C   0  0  0  0  0  0  0  0  0  0  0  0
    1.2320    2.6000   -0.1250 C   0  0  0  0  0  0  0  0  0  0  0  0
    2.3210    3.6100    0.0630 C   0  0  0  0  0  0  0  0  0  0  0  0
    3.2250    3.8960   -0.9900 C   0  0  0  0  0  0  0  0  0  0  0  0
    2.4940    4.3740    1.2440 C   0  0  0  0  0  0  0  0  0  0  0  0
    4.2120    4.8130   -0.9130 N   0  0  0  0  0  0  0  0  0  0  0  0
    1.7480    4.2550    2.3610 N   0  0  0  0  0  0  0  0  0  0  0  0
    3.5080    5.3160    1.3300 C   0  0  0  0  0  0  0  0  0  0  0  0
    4.3670    5.5130    0.2330 C   0  0  0  0  0  0  0  0  0  0  0  0
    2.3790    5.3390    3.4140 S   0  0  0  0  0  0  0  0  0  0  0  0
    3.5810    5.9780    2.5050 N   0  0  0  0  0  0  0  0  0  0  0  0
    5.4450    6.4980    0.2820 C   0  0  0  0  0  0  0  0  0  0  0  0
    6.7250    6.1800    0.4240 N   0  0  0  0  0  0  0  0  0  0  0  0
    5.0720    8.2060    0.1760 B   0  0  0  0  0  0  0  0  0  0  0  0
    7.5090    7.3110    0.4490 C   0  0  0  0  0  0  0  0  0  0  0  0
    6.7850    8.4740    0.3330 C   0  0  0  0  0  0  0  0  0  0  0  0
    7.4140    9.7670    0.3040 C   0  0  0  0  0  0  0  0  0  0  0  0
    6.7630   11.2530    1.0260 C   0  0  0  0  0  0  0  0  0  0  0  0
    8.6270   10.0380   -0.2800 C   0  0  0  0  0  0  0  0  0  0  0  0
    8.1690   12.2080    0.5050 C   0  0  0  0  0  0  0  0  0  0  0  0
    9.6820    9.0120   -1.2110 S   0  0  0  0  0  0  0  0  0  0  0  0
    9.0050   11.3640   -0.1680 C   0  0  0  0  0  0  0  0  0  0  0  0
   10.7320   10.4490   -1.4230 C   0  0  0  0  0  0  0  0  0  0  0  0
   10.2380   11.6040   -0.8260 C   0  0  0  0  0  0  0  0  0  0  0  0
   -1.6160   -0.0300   -0.7490 H   0  0  0  0  0  0  0  0  0  0  0  0
    0.6940   -0.4780   -1.5640 H   0  0  0  0  0  0  0  0  0  0  0  0
   -2.1230    2.0980    0.4410 H   0  0  0  0  0  0  0  0  0  0  0  0
    2.4920    1.1800   -1.1760 H   0  0  0  0  0  0  0  0  0  0  0  0
   -0.3370    3.7680    0.8170 H   0  0  0  0  0  0  0  0  0  0  0  0
    3.1450    3.3720   -1.9420 H   0  0  0  0  0  0  0  0  0  0  0  0
    8.5790    7.2070    0.5720 H   0  0  0  0  0  0  0  0  0  0  0  0
    8.2540   13.2650    0.7080 H   0  0  0  0  0  0  0  0  0  0  0  0
   11.6460   10.3390   -1.9910 H   0  0  0  0  0  0  0  0  0  0  0  0
   10.7220   12.5740   -0.8610 H   0  0  0  0  0  0  0  0  0  0  0  0
  1  3  2  0  0  0  0
  2  4  2  0  0  0  0
  2  1  1  0  0  0  0
  3  5  1  0  0  0  0
  3 31  1  0  0  0  0
  4  6  1  0  0  0  0
  5 33  1  0  0  0  0
  6  7  1  0  0  0  0
  6  5  2  0  0  0  0
  7  9  1  0  0  0  0
  8 10  1  0  0  0  0
  8  7  2  0  0  0  0
  9 12  1  0  0  0  0
  9 11  2  0  0  0  0
 10 13  2  0  0  0  0
 11 14  1  0  0  0  0
 12 15  2  0  0  0  0
 13 16  1  0  0  0  0
 13 12  1  0  0  0  0
 15 14  1  0  0  0  0
 16 17  2  0  0  0  0
 17 19  1  0  0  0  0
 18 16  1  0  0  0  0
 18 20  2  0  0  0  0
 19 35  1  0  0  0  0
 20 19  1  0  0  0  0
 21 20  1  0  0  0  0
 21 22  1  0  0  0  0
 23 26  1  0  0  0  0
 23 21  2  0  0  0  0
 24 36  1  0  0  0  0
 24 22  2  0  0  0  0
 25 23  1  0  0  0  0
 26 24  1  0  0  0  0
 27 25  2  0  0  0  0
 27 28  1  0  0  0  0
 28 26  2  0  0  0  0
 29  1  1  0  0  0  0
 30  2  1  0  0  0  0
 32  4  1  0  0  0  0
 34  8  1  0  0  0  0
 37 27  1  0  0  0  0
 38 28  1  0  0  0  0
M  END
$$$$
scan_sander_basal_param/min_pdbs/min_pdb_C306_120.pdb
 OpenBabel10021702563D

 38 43  0  0  0  0  0  0  0  0999 V2000
   -0.8240    0.6790   -0.5440 C   0  0  0  0  0  0  0  0  0  0  0  0
    0.4980    0.3870   -0.9150 C   0  0  0  0  0  0  0  0  0  0  0  0
   -1.1300    1.9220    0.0300 C   0  0  0  0  0  0  0  0  0  0  0  0
    1.5110    1.3360   -0.7040 C   0  0  0  0  0  0  0  0  0  0  0  0
   -0.1130    2.8680    0.2400 C   0  0  0  0  0  0  0  0  0  0  0  0
    1.2320    2.5900   -0.1070 C   0  0  0  0  0  0  0  0  0  0  0  0
    2.3210    3.6020    0.0720 C   0  0  0  0  0  0  0  0  0  0  0  0
    3.2830    3.8090   -0.9480 C   0  0  0  0  0  0  0  0  0  0  0  0
    2.4400    4.4420    1.2060 C   0  0  0  0  0  0  0  0  0  0  0  0
    4.2740    4.7230   -0.8790 N   0  0  0  0  0  0  0  0  0  0  0  0
    1.6370    4.3980    2.2890 N   0  0  0  0  0  0  0  0  0  0  0  0
    3.4570    5.3820    1.2840 C   0  0  0  0  0  0  0  0  0  0  0  0
    4.3740    5.5040    0.2210 C   0  0  0  0  0  0  0  0  0  0  0  0
    2.2240    5.5390    3.3040 S   0  0  0  0  0  0  0  0  0  0  0  0
    3.4790    6.1110    2.4210 N   0  0  0  0  0  0  0  0  0  0  0  0
    5.4670    6.4770    0.2580 C   0  0  0  0  0  0  0  0  0  0  0  0
    6.7490    6.1430    0.1910 N   0  0  0  0  0  0  0  0  0  0  0  0
    5.1200    8.1890    0.4000 B   0  0  0  0  0  0  0  0  0  0  0  0
    7.5530    7.2590    0.2480 C   0  0  0  0  0  0  0  0  0  0  0  0
    6.8430    8.4310    0.3660 C   0  0  0  0  0  0  0  0  0  0  0  0
    7.4880    9.7150    0.4100 C   0  0  0  0  0  0  0  0  0  0  0  0
    6.9620   11.1060    1.3810 C   0  0  0  0  0  0  0  0  0  0  0  0
    8.6210   10.0490   -0.2890 C   0  0  0  0  0  0  0  0  0  0  0  0
    8.3090   12.1110    0.8000 C   0  0  0  0  0  0  0  0  0  0  0  0
    9.5290    9.1390   -1.4630 S   0  0  0  0  0  0  0  0  0  0  0  0
    9.0360   11.3510   -0.0710 C   0  0  0  0  0  0  0  0  0  0  0  0
   10.5710   10.5860   -1.6370 C   0  0  0  0  0  0  0  0  0  0  0  0
   10.1800   11.6640   -0.8490 C   0  0  0  0  0  0  0  0  0  0  0  0
   -1.6090   -0.0530   -0.7070 H   0  0  0  0  0  0  0  0  0  0  0  0
    0.7360   -0.5730   -1.3640 H   0  0  0  0  0  0  0  0  0  0  0  0
   -2.1540    2.1540    0.3090 H   0  0  0  0  0  0  0  0  0  0  0  0
    2.5300    1.0920   -0.9930 H   0  0  0  0  0  0  0  0  0  0  0  0
   -0.3710    3.8310    0.6690 H   0  0  0  0  0  0  0  0  0  0  0  0
    3.2490    3.2220   -1.8650 H   0  0  0  0  0  0  0  0  0  0  0  0
    8.6270    7.1370    0.2180 H   0  0  0  0  0  0  0  0  0  0  0  0
    8.4400   13.1360    1.1140 H   0  0  0  0  0  0  0  0  0  0  0  0
   11.4030   10.5420   -2.3270 H   0  0  0  0  0  0  0  0  0  0  0  0
   10.6730   12.6290   -0.8310 H   0  0  0  0  0  0  0  0  0  0  0  0
  1  3  2  0  0  0  0
  2  4  2  0  0  0  0
  2  1  1  0  0  0  0
  3  5  1  0  0  0  0
  3 31  1  0  0  0  0
  4  6  1  0  0  0  0
  5 33  1  0  0  0  0
  6  7  1  0  0  0  0
  6  5  2  0  0  0  0
  7  9  1  0  0  0  0
  8 10  1  0  0  0  0
  8  7  2  0  0  0  0
  9 12  1  0  0  0  0
  9 11  2  0  0  0  0
 10 13  2  0  0  0  0
 11 14  1  0  0  0  0
 12 15  2  0  0  0  0
 13 16  1  0  0  0  0
 13 12  1  0  0  0  0
 15 14  1  0  0  0  0
 16 18  1  0  0  0  0
 17 19  1  0  0  0  0
 17 16  2  0  0  0  0
 19 20  1  0  0  0  0
 20 18  2  0  0  0  0
 20 21  1  0  0  0  0
 21 22  1  0  0  0  0
 23 26  1  0  0  0  0
 23 21  2  0  0  0  0
 24 36  1  0  0  0  0
 24 22  2  0  0  0  0
 25 23  1  0  0  0  0
 26 24  1  0  0  0  0
 27 25  2  0  0  0  0
 27 28  1  0  0  0  0
 28 38  1  0  0  0  0
 28 26  2  0  0  0  0
 29  1  1  0  0  0  0
 30  2  1  0  0  0  0
 32  4  1  0  0  0  0
 34  8  1  0  0  0  0
 35 19  1  0  0  0  0
 37 27  1  0  0  0  0
M  END
$$$$
scan_sander_basal_param/min_pdbs/min_pdb_C306_135.pdb
 OpenBabel10021702563D

 38 43  0  0  0  0  0  0  0  0999 V2000
   -0.8080    0.6480   -0.5180 C   0  0  0  0  0  0  0  0  0  0  0  0
    0.5300    0.3280   -0.7910 C   0  0  0  0  0  0  0  0  0  0  0  0
   -1.1390    1.9260   -0.0450 C   0  0  0  0  0  0  0  0  0  0  0  0
    1.5360    1.2860   -0.5850 C   0  0  0  0  0  0  0  0  0  0  0  0
   -0.1310    2.8820    0.1610 C   0  0  0  0  0  0  0  0  0  0  0  0
    1.2310    2.5770   -0.0890 C   0  0  0  0  0  0  0  0  0  0  0  0
    2.3140    3.5960    0.0860 C   0  0  0  0  0  0  0  0  0  0  0  0
    3.3340    3.7330   -0.8860 C   0  0  0  0  0  0  0  0  0  0  0  0
    2.3730    4.5090    1.1670 C   0  0  0  0  0  0  0  0  0  0  0  0
    4.3230    4.6480   -0.8200 N   0  0  0  0  0  0  0  0  0  0  0  0
    1.5120    4.5280    2.2050 N   0  0  0  0  0  0  0  0  0  0  0  0
    3.3890    5.4530    1.2420 C   0  0  0  0  0  0  0  0  0  0  0  0
    4.3640    5.5100    0.2230 C   0  0  0  0  0  0  0  0  0  0  0  0
    2.0460    5.7250    3.1840 S   0  0  0  0  0  0  0  0  0  0  0  0
    3.3510    6.2400    2.3400 N   0  0  0  0  0  0  0  0  0  0  0  0
    5.4730    6.4730    0.2460 C   0  0  0  0  0  0  0  0  0  0  0  0
    6.7300    6.1450   -0.0290 N   0  0  0  0  0  0  0  0  0  0  0  0
    5.1940    8.1660    0.6220 B   0  0  0  0  0  0  0  0  0  0  0  0
    7.5620    7.2390    0.0500 C   0  0  0  0  0  0  0  0  0  0  0  0
    6.9030    8.3950    0.3920 C   0  0  0  0  0  0  0  0  0  0  0  0
    7.5790    9.6590    0.5000 C   0  0  0  0  0  0  0  0  0  0  0  0
    7.2160   10.9320    1.6840 C   0  0  0  0  0  0  0  0  0  0  0  0
    8.6220   10.0620   -0.2970 C   0  0  0  0  0  0  0  0  0  0  0  0
    8.5010   11.9850    1.0520 C   0  0  0  0  0  0  0  0  0  0  0  0
    9.3500    9.2870   -1.6760 S   0  0  0  0  0  0  0  0  0  0  0  0
    9.0920   11.3260    0.0130 C   0  0  0  0  0  0  0  0  0  0  0  0
   10.3960   10.7360   -1.8160 C   0  0  0  0  0  0  0  0  0  0  0  0
   10.1350   11.7170   -0.8660 C   0  0  0  0  0  0  0  0  0  0  0  0
   -1.5880   -0.0920   -0.6780 H   0  0  0  0  0  0  0  0  0  0  0  0
    0.7880   -0.6600   -1.1620 H   0  0  0  0  0  0  0  0  0  0  0  0
   -2.1760    2.1790    0.1580 H   0  0  0  0  0  0  0  0  0  0  0  0
    2.5680    1.0210   -0.7970 H   0  0  0  0  0  0  0  0  0  0  0  0
   -0.4060    3.8720    0.5100 H   0  0  0  0  0  0  0  0  0  0  0  0
    3.3520    3.0850   -1.7620 H   0  0  0  0  0  0  0  0  0  0  0  0
    8.6210    7.1100   -0.1340 H   0  0  0  0  0  0  0  0  0  0  0  0
    8.6960   12.9660    1.4630 H   0  0  0  0  0  0  0  0  0  0  0  0
   11.1310   10.7640   -2.6090 H   0  0  0  0  0  0  0  0  0  0  0  0
   10.6500   12.6690   -0.8010 H   0  0  0  0  0  0  0  0  0  0  0  0
  1  3  2  0  0  0  0
  2  4  2  0  0  0  0
  2  1  1  0  0  0  0
  3 31  1  0  0  0  0
  3  5  1  0  0  0  0
  4  6  1  0  0  0  0
  5 33  1  0  0  0  0
  6  7  1  0  0  0  0
  6  5  2  0  0  0  0
  7  9  1  0  0  0  0
  8 10  1  0  0  0  0
  8  7  2  0  0  0  0
  9 12  1  0  0  0  0
  9 11  2  0  0  0  0
 10 13  2  0  0  0  0
 11 14  1  0  0  0  0
 12 15  2  0  0  0  0
 13 16  1  0  0  0  0
 13 12  1  0  0  0  0
 15 14  1  0  0  0  0
 16 18  1  0  0  0  0
 17 19  1  0  0  0  0
 17 16  2  0  0  0  0
 19 20  1  0  0  0  0
 20 21  1  0  0  0  0
 20 18  2  0  0  0  0
 21 22  1  0  0  0  0
 23 26  1  0  0  0  0
 23 21  2  0  0  0  0
 24 36  1  0  0  0  0
 24 22  2  0  0  0  0
 25 23  1  0  0  0  0
 26 24  1  0  0  0  0
 27 25  2  0  0  0  0
 27 28  1  0  0  0  0
 28 38  1  0  0  0  0
 28 26  2  0  0  0  0
 29  1  1  0  0  0  0
 30  2  1  0  0  0  0
 32  4  1  0  0  0  0
 34  8  1  0  0  0  0
 35 19  1  0  0  0  0
 37 27  1  0  0  0  0
M  END
$$$$
scan_sander_basal_param/min_pdbs/min_pdb_C306_150.pdb
 OpenBabel10021702563D

 38 43  0  0  0  0  0  0  0  0999 V2000
   -0.7860    0.6040   -0.4860 C   0  0  0  0  0  0  0  0  0  0  0  0
    0.5660    0.2690   -0.6540 C   0  0  0  0  0  0  0  0  0  0  0  0
   -1.1420    1.9120   -0.1240 C   0  0  0  0  0  0  0  0  0  0  0  0
    1.5600    1.2410   -0.4540 C   0  0  0  0  0  0  0  0  0  0  0  0
   -0.1450    2.8810    0.0760 C   0  0  0  0  0  0  0  0  0  0  0  0
    1.2280    2.5630   -0.0680 C   0  0  0  0  0  0  0  0  0  0  0  0
    2.3010    3.5930    0.1020 C   0  0  0  0  0  0  0  0  0  0  0  0
    3.3780    3.6640   -0.8120 C   0  0  0  0  0  0  0  0  0  0  0  0
    2.2980    4.5790    1.1180 C   0  0  0  0  0  0  0  0  0  0  0  0
    4.3620    4.5830   -0.7480 N   0  0  0  0  0  0  0  0  0  0  0  0
    1.3750    4.6610    2.0980 N   0  0  0  0  0  0  0  0  0  0  0  0
    3.3100    5.5300    1.1900 C   0  0  0  0  0  0  0  0  0  0  0  0
    4.3470    5.5230    0.2270 C   0  0  0  0  0  0  0  0  0  0  0  0
    1.8470    5.9180    3.0290 S   0  0  0  0  0  0  0  0  0  0  0  0
    3.2010    6.3800    2.2360 N   0  0  0  0  0  0  0  0  0  0  0  0
    5.4690    6.4810    0.2300 C   0  0  0  0  0  0  0  0  0  0  0  0
    6.6770    6.1790   -0.2380 N   0  0  0  0  0  0  0  0  0  0  0  0
    5.2930    8.1270    0.8230 B   0  0  0  0  0  0  0  0  0  0  0  0
    7.5430    7.2450   -0.1430 C   0  0  0  0  0  0  0  0  0  0  0  0
    6.9650    8.3620    0.4070 C   0  0  0  0  0  0  0  0  0  0  0  0
    7.6820    9.5970    0.5700 C   0  0  0  0  0  0  0  0  0  0  0  0
    7.5030   10.7290    1.9270 C   0  0  0  0  0  0  0  0  0  0  0  0
    8.6280   10.0760   -0.3010 C   0  0  0  0  0  0  0  0  0  0  0  0
    8.7280   11.8320    1.2610 C   0  0  0  0  0  0  0  0  0  0  0  0
    9.1600    9.4560   -1.8390 S   0  0  0  0  0  0  0  0  0  0  0  0
    9.1680   11.2890    0.0880 C   0  0  0  0  0  0  0  0  0  0  0  0
   10.2180   10.8980   -1.9460 C   0  0  0  0  0  0  0  0  0  0  0  0
   10.1040   11.7660   -0.8660 C   0  0  0  0  0  0  0  0  0  0  0  0
   -1.5560   -0.1460   -0.6420 H   0  0  0  0  0  0  0  0  0  0  0  0
    0.8430   -0.7420   -0.9390 H   0  0  0  0  0  0  0  0  0  0  0  0
   -2.1890    2.1760   -0.0030 H   0  0  0  0  0  0  0  0  0  0  0  0
    2.6020    0.9640   -0.5840 H   0  0  0  0  0  0  0  0  0  0  0  0
   -0.4400    3.8930    0.3370 H   0  0  0  0  0  0  0  0  0  0  0  0
    3.4490    2.9570   -1.6380 H   0  0  0  0  0  0  0  0  0  0  0  0
    8.5660    7.1240   -0.4740 H   0  0  0  0  0  0  0  0  0  0  0  0
    8.9990   12.7560    1.7520 H   0  0  0  0  0  0  0  0  0  0  0  0
   10.8510   11.0080   -2.8170 H   0  0  0  0  0  0  0  0  0  0  0  0
   10.6480   12.6970   -0.7600 H   0  0  0  0  0  0  0  0  0  0  0  0
  1  3  1  0  0  0  0
  2  1  2  0  0  0  0
  2  4  1  0  0  0  0
  3 31  1  0  0  0  0
  3  5  2  0  0  0  0
  4  6  2  0  0  0  0
  5 33  1  0  0  0  0
  6  5  1  0  0  0  0
  6  7  1  0  0  0  0
  7  9  1  0  0  0  0
  8 10  1  0  0  0  0
  8  7  2  0  0  0  0
  9 12  1  0  0  0  0
  9 11  2  0  0  0  0
 10 13  2  0  0  0  0
 11 14  1  0  0  0  0
 12 15  2  0  0  0  0
 13 16  1  0  0  0  0
 13 12  1  0  0  0  0
 15 14  1  0  0  0  0
 16 18  1  0  0  0  0
 17 19  1  0  0  0  0
 17 16  2  0  0  0  0
 19 20  1  0  0  0  0
 20 21  1  0  0  0  0
 20 18  2  0  0  0  0
 21 22  1  0  0  0  0
 23 26  1  0  0  0  0
 23 21  2  0  0  0  0
 24 36  1  0  0  0  0
 24 22  2  0  0  0  0
 25 23  1  0  0  0  0
 26 24  1  0  0  0  0
 27 25  2  0  0  0  0
 27 28  1  0  0  0  0
 28 38  1  0  0  0  0
 28 26  2  0  0  0  0
 29  1  1  0  0  0  0
 30  2  1  0  0  0  0
 32  4  1  0  0  0  0
 34  8  1  0  0  0  0
 35 19  1  0  0  0  0
 37 27  1  0  0  0  0
M  END
$$$$
scan_sander_basal_param/min_pdbs/min_pdb_C306_165.pdb
 OpenBabel10021702563D

 38 43  0  0  0  0  0  0  0  0999 V2000
   -0.7630    0.5600   -0.4410 C   0  0  0  0  0  0  0  0  0  0  0  0
    0.5960    0.2170   -0.5010 C   0  0  0  0  0  0  0  0  0  0  0  0
   -1.1380    1.8890   -0.1970 C   0  0  0  0  0  0  0  0  0  0  0  0
    1.5780    1.2040   -0.3120 C   0  0  0  0  0  0  0  0  0  0  0  0
   -0.1540    2.8730   -0.0080 C   0  0  0  0  0  0  0  0  0  0  0  0
    1.2250    2.5500   -0.0440 C   0  0  0  0  0  0  0  0  0  0  0  0
    2.2880    3.5920    0.1150 C   0  0  0  0  0  0  0  0  0  0  0  0
    3.4180    3.5990   -0.7350 C   0  0  0  0  0  0  0  0  0  0  0  0
    2.2270    4.6500    1.0530 C   0  0  0  0  0  0  0  0  0  0  0  0
    4.3960    4.5230   -0.6770 N   0  0  0  0  0  0  0  0  0  0  0  0
    1.2420    4.7990    1.9630 N   0  0  0  0  0  0  0  0  0  0  0  0
    3.2350    5.6080    1.1190 C   0  0  0  0  0  0  0  0  0  0  0  0
    4.3330    5.5330    0.2240 C   0  0  0  0  0  0  0  0  0  0  0  0
    1.6490    6.1250    2.8260 S   0  0  0  0  0  0  0  0  0  0  0  0
    3.0530    6.5310    2.0900 N   0  0  0  0  0  0  0  0  0  0  0  0
    5.4650    6.4880    0.2050 C   0  0  0  0  0  0  0  0  0  0  0  0
    6.6050    6.2340   -0.4350 N   0  0  0  0  0  0  0  0  0  0  0  0
    5.4140    8.0580    1.0000 B   0  0  0  0  0  0  0  0  0  0  0  0
    7.5050    7.2700   -0.3270 C   0  0  0  0  0  0  0  0  0  0  0  0
    7.0280    8.3220    0.4120 C   0  0  0  0  0  0  0  0  0  0  0  0
    7.7910    9.5210    0.6240 C   0  0  0  0  0  0  0  0  0  0  0  0
    7.8070   10.4920    2.1120 C   0  0  0  0  0  0  0  0  0  0  0  0
    8.6360   10.0870   -0.2980 C   0  0  0  0  0  0  0  0  0  0  0  0
    8.9690   11.6500    1.4290 C   0  0  0  0  0  0  0  0  0  0  0  0
    8.9620    9.6410   -1.9490 S   0  0  0  0  0  0  0  0  0  0  0  0
    9.2500   11.2410    0.1570 C   0  0  0  0  0  0  0  0  0  0  0  0
   10.0360   11.0740   -2.0220 C   0  0  0  0  0  0  0  0  0  0  0  0
   10.0750   11.8130   -0.8450 C   0  0  0  0  0  0  0  0  0  0  0  0
   -1.5230   -0.2020   -0.5880 H   0  0  0  0  0  0  0  0  0  0  0  0
    0.8890   -0.8110   -0.6950 H   0  0  0  0  0  0  0  0  0  0  0  0
   -2.1900    2.1590   -0.1600 H   0  0  0  0  0  0  0  0  0  0  0  0
    2.6250    0.9210   -0.3580 H   0  0  0  0  0  0  0  0  0  0  0  0
   -0.4620    3.9000    0.1600 H   0  0  0  0  0  0  0  0  0  0  0  0
    3.5370    2.8340   -1.5020 H   0  0  0  0  0  0  0  0  0  0  0  0
    8.4770    7.1740   -0.7930 H   0  0  0  0  0  0  0  0  0  0  0  0
    9.3210   12.5080    1.9830 H   0  0  0  0  0  0  0  0  0  0  0  0
   10.5610   11.2760   -2.9460 H   0  0  0  0  0  0  0  0  0  0  0  0
   10.6520   12.7200   -0.7030 H   0  0  0  0  0  0  0  0  0  0  0  0
  1  3  1  0  0  0  0
  2  1  2  0  0  0  0
  2  4  1  0  0  0  0
  3 31  1  0  0  0  0
  3  5  2  0  0  0  0
  4  6  2  0  0  0  0
  5 33  1  0  0  0  0
  6  5  1  0  0  0  0
  6  7  1  0  0  0  0
  7  9  1  0  0  0  0
  8 10  1  0  0  0  0
  8  7  2  0  0  0  0
  9 12  1  0  0  0  0
  9 11  2  0  0  0  0
 10 13  2  0  0  0  0
 11 14  1  0  0  0  0
 12 15  2  0  0  0  0
 13 12  1  0  0  0  0
 15 14  1  0  0  0  0
 16 13  1  0  0  0  0
 16 18  1  0  0  0  0
 17 19  1  0  0  0  0
 17 16  2  0  0  0  0
 19 20  1  0  0  0  0
 20 21  1  0  0  0  0
 20 18  2  0  0  0  0
 21 22  1  0  0  0  0
 23 26  1  0  0  0  0
 23 21  2  0  0  0  0
 24 36  1  0  0  0  0
 24 22  2  0  0  0  0
 25 23  1  0  0  0  0
 26 24  1  0  0  0  0
 27 25  2  0  0  0  0
 27 28  1  0  0  0  0
 28 38  1  0  0  0  0
 28 26  2  0  0  0  0
 29  1  1  0  0  0  0
 30  2  1  0  0  0  0
 32  4  1  0  0  0  0
 34  8  1  0  0  0  0
 35 19  1  0  0  0  0
 37 27  1  0  0  0  0
M  END
$$$$
scan_sander_basal_param/min_pdbs/min_pdb_C306_180.pdb
 OpenBabel10021702563D

 38 43  0  0  0  0  0  0  0  0999 V2000
   -0.7450    0.5220   -0.3630 C   0  0  0  0  0  0  0  0  0  0  0  0
    0.6140    0.1790   -0.3290 C   0  0  0  0  0  0  0  0  0  0  0  0
   -1.1310    1.8650   -0.2380 C   0  0  0  0  0  0  0  0  0  0  0  0
    1.5860    1.1790   -0.1650 C   0  0  0  0  0  0  0  0  0  0  0  0
   -0.1560    2.8630   -0.0740 C   0  0  0  0  0  0  0  0  0  0  0  0
    1.2220    2.5410   -0.0160 C   0  0  0  0  0  0  0  0  0  0  0  0
    2.2780    3.5940    0.1180 C   0  0  0  0  0  0  0  0  0  0  0  0
    3.4480    3.5400   -0.6720 C   0  0  0  0  0  0  0  0  0  0  0  0
    2.1720    4.7200    0.9700 C   0  0  0  0  0  0  0  0  0  0  0  0
    4.4250    4.4660   -0.6330 N   0  0  0  0  0  0  0  0  0  0  0  0
    1.1380    4.9390    1.8070 N   0  0  0  0  0  0  0  0  0  0  0  0
    3.1800    5.6790    1.0180 C   0  0  0  0  0  0  0  0  0  0  0  0
    4.3260    5.5370    0.1930 C   0  0  0  0  0  0  0  0  0  0  0  0
    1.4950    6.3340    2.5780 S   0  0  0  0  0  0  0  0  0  0  0  0
    2.9390    6.6810    1.8940 N   0  0  0  0  0  0  0  0  0  0  0  0
    5.4650    6.4870    0.1510 C   0  0  0  0  0  0  0  0  0  0  0  0
    6.5180    6.3050   -0.6440 N   0  0  0  0  0  0  0  0  0  0  0  0
    5.5510    7.9450    1.1360 B   0  0  0  0  0  0  0  0  0  0  0  0
    7.4490    7.3110   -0.5210 C   0  0  0  0  0  0  0  0  0  0  0  0
    7.0880    8.2680    0.3940 C   0  0  0  0  0  0  0  0  0  0  0  0
    7.8980    9.4260    0.6560 C   0  0  0  0  0  0  0  0  0  0  0  0
    8.1140   10.2050    2.2380 C   0  0  0  0  0  0  0  0  0  0  0  0
    8.6400   10.0950   -0.2860 C   0  0  0  0  0  0  0  0  0  0  0  0
    9.2120   11.4300    1.5640 C   0  0  0  0  0  0  0  0  0  0  0  0
    8.7550    9.8540   -2.0060 S   0  0  0  0  0  0  0  0  0  0  0  0
    9.3290   11.1790    0.2270 C   0  0  0  0  0  0  0  0  0  0  0  0
    9.8450   11.2760   -2.0350 C   0  0  0  0  0  0  0  0  0  0  0  0
   10.0410   11.8640   -0.7910 C   0  0  0  0  0  0  0  0  0  0  0  0
   -1.4990   -0.2510   -0.4900 H   0  0  0  0  0  0  0  0  0  0  0  0
    0.9150   -0.8600   -0.4300 H   0  0  0  0  0  0  0  0  0  0  0  0
   -2.1830    2.1340   -0.2740 H   0  0  0  0  0  0  0  0  0  0  0  0
    2.6340    0.8970   -0.1370 H   0  0  0  0  0  0  0  0  0  0  0  0
   -0.4720    3.8990    0.0010 H   0  0  0  0  0  0  0  0  0  0  0  0
    3.6030    2.7220   -1.3750 H   0  0  0  0  0  0  0  0  0  0  0  0
    8.3560    7.2650   -1.1080 H   0  0  0  0  0  0  0  0  0  0  0  0
    9.6470   12.2100    2.1720 H   0  0  0  0  0  0  0  0  0  0  0  0
   10.2600   11.5870   -2.9850 H   0  0  0  0  0  0  0  0  0  0  0  0
   10.6520   12.7420   -0.6100 H   0  0  0  0  0  0  0  0  0  0  0  0
  1  2  2  0  0  0  0
  1  3  1  0  0  0  0
  2  4  1  0  0  0  0
  3  5  2  0  0  0  0
  4 32  1  0  0  0  0
  4  6  2  0  0  0  0
  5  6  1  0  0  0  0
  5 33  1  0  0  0  0
  6  7  1  0  0  0  0
  7  9  1  0  0  0  0
  8 10  1  0  0  0  0
  8  7  2  0  0  0  0
  9 12  1  0  0  0  0
  9 11  2  0  0  0  0
 10 13  2  0  0  0  0
 11 14  1  0  0  0  0
 12 15  2  0  0  0  0
 13 12  1  0  0  0  0
 15 14  1  0  0  0  0
 16 13  1  0  0  0  0
 16 18  1  0  0  0  0
 17 19  1  0  0  0  0
 17 16  2  0  0  0  0
 19 20  1  0  0  0  0
 20 21  1  0  0  0  0
 20 18  2  0  0  0  0
 21 22  1  0  0  0  0
 23 26  1  0  0  0  0
 23 21  2  0  0  0  0
 24 36  1  0  0  0  0
 24 22  2  0  0  0  0
 25 23  1  0  0  0  0
 26 24  1  0  0  0  0
 27 25  2  0  0  0  0
 27 28  1  0  0  0  0
 28 38  1  0  0  0  0
 28 26  2  0  0  0  0
 29  1  1  0  0  0  0
 30  2  1  0  0  0  0
 31  3  1  0  0  0  0
 34  8  1  0  0  0  0
 35 19  1  0  0  0  0
 37 27  1  0  0  0  0
M  END
$$$$
scan_sander_basal_param/min_pdbs/min_pdb_C306_195.pdb
 OpenBabel10021702563D

 38 43  0  0  0  0  0  0  0  0999 V2000
   -0.7300    0.4900   -0.2430 C   0  0  0  0  0  0  0  0  0  0  0  0
    0.6270    0.1540   -0.1240 C   0  0  0  0  0  0  0  0  0  0  0  0
   -1.1190    1.8370   -0.2470 C   0  0  0  0  0  0  0  0  0  0  0  0
    1.5920    1.1670   -0.0020 C   0  0  0  0  0  0  0  0  0  0  0  0
   -0.1510    2.8480   -0.1240 C   0  0  0  0  0  0  0  0  0  0  0  0
    1.2230    2.5350    0.0190 C   0  0  0  0  0  0  0  0  0  0  0  0
    2.2740    3.5980    0.1110 C   0  0  0  0  0  0  0  0  0  0  0  0
    3.4780    3.4800   -0.6210 C   0  0  0  0  0  0  0  0  0  0  0  0
    2.1340    4.7900    0.8620 C   0  0  0  0  0  0  0  0  0  0  0  0
    4.4560    4.4060   -0.6140 N   0  0  0  0  0  0  0  0  0  0  0  0
    1.0610    5.0840    1.6240 N   0  0  0  0  0  0  0  0  0  0  0  0
    3.1440    5.7480    0.8790 C   0  0  0  0  0  0  0  0  0  0  0  0
    4.3270    5.5340    0.1270 C   0  0  0  0  0  0  0  0  0  0  0  0
    1.3840    6.5440    2.2800 S   0  0  0  0  0  0  0  0  0  0  0  0
    2.8620    6.8290    1.6410 N   0  0  0  0  0  0  0  0  0  0  0  0
    5.4630    6.4820    0.0610 C   0  0  0  0  0  0  0  0  0  0  0  0
    6.4160    6.3960   -0.8640 N   0  0  0  0  0  0  0  0  0  0  0  0
    5.6850    7.7980    1.2100 B   0  0  0  0  0  0  0  0  0  0  0  0
    7.3720    7.3750   -0.7210 C   0  0  0  0  0  0  0  0  0  0  0  0
    7.1350    8.2070    0.3440 C   0  0  0  0  0  0  0  0  0  0  0  0
    7.9920    9.3180    0.6580 C   0  0  0  0  0  0  0  0  0  0  0  0
    8.3990    9.8840    2.2920 C   0  0  0  0  0  0  0  0  0  0  0  0
    8.6350   10.0990   -0.2690 C   0  0  0  0  0  0  0  0  0  0  0  0
    9.4380   11.1800    1.6600 C   0  0  0  0  0  0  0  0  0  0  0  0
    8.5520   10.0830   -2.0080 S   0  0  0  0  0  0  0  0  0  0  0  0
    9.3990   11.1040    0.2980 C   0  0  0  0  0  0  0  0  0  0  0  0
    9.6600   11.4910   -1.9770 C   0  0  0  0  0  0  0  0  0  0  0  0
   10.0060   11.9120   -0.6980 C   0  0  0  0  0  0  0  0  0  0  0  0
   -1.4780   -0.2930   -0.3390 H   0  0  0  0  0  0  0  0  0  0  0  0
    0.9310   -0.8890   -0.1260 H   0  0  0  0  0  0  0  0  0  0  0  0
   -2.1680    2.1000   -0.3500 H   0  0  0  0  0  0  0  0  0  0  0  0
    2.6380    0.8900    0.0940 H   0  0  0  0  0  0  0  0  0  0  0  0
   -0.4680    3.8850   -0.1490 H   0  0  0  0  0  0  0  0  0  0  0  0
    3.6580    2.6100   -1.2510 H   0  0  0  0  0  0  0  0  0  0  0  0
    8.2070    7.4020   -1.4090 H   0  0  0  0  0  0  0  0  0  0  0  0
    9.9550   11.8720    2.3100 H   0  0  0  0  0  0  0  0  0  0  0  0
    9.9730   11.9200   -2.9210 H   0  0  0  0  0  0  0  0  0  0  0  0
   10.6510   12.7550   -0.4770 H   0  0  0  0  0  0  0  0  0  0  0  0
  1  2  1  0  0  0  0
  2  4  2  0  0  0  0
  3  1  2  0  0  0  0
  3  5  1  0  0  0  0
  4  6  1  0  0  0  0
  4 32  1  0  0  0  0
  5  6  2  0  0  0  0
  6  7  1  0  0  0  0
  7  9  1  0  0  0  0
  8 10  1  0  0  0  0
  8  7  2  0  0  0  0
  9 12  1  0  0  0  0
  9 11  2  0  0  0  0
 10 13  2  0  0  0  0
 11 14  1  0  0  0  0
 12 15  2  0  0  0  0
 13 12  1  0  0  0  0
 15 14  1  0  0  0  0
 16 13  1  0  0  0  0
 16 18  1  0  0  0  0
 17 19  1  0  0  0  0
 17 16  2  0  0  0  0
 19 20  1  0  0  0  0
 20 21  1  0  0  0  0
 20 18  2  0  0  0  0
 21 22  1  0  0  0  0
 23 26  1  0  0  0  0
 23 21  2  0  0  0  0
 24 22  2  0  0  0  0
 24 36  1  0  0  0  0
 25 27  2  0  0  0  0
 25 23  1  0  0  0  0
 26 24  1  0  0  0  0
 27 28  1  0  0  0  0
 28 38  1  0  0  0  0
 28 26  2  0  0  0  0
 29  1  1  0  0  0  0
 30  2  1  0  0  0  0
 31  3  1  0  0  0  0
 33  5  1  0  0  0  0
 34  8  1  0  0  0  0
 35 19  1  0  0  0  0
 37 27  1  0  0  0  0
M  END
$$$$
scan_sander_basal_param/min_pdbs/min_pdb_C306_210.pdb
 OpenBabel10021702563D

 38 43  0  0  0  0  0  0  0  0999 V2000
   -0.7320    0.4900   -0.1240 C   0  0  0  0  0  0  0  0  0  0  0  0
    0.6160    0.1560    0.0750 C   0  0  0  0  0  0  0  0  0  0  0  0
   -1.1070    1.8360   -0.2470 C   0  0  0  0  0  0  0  0  0  0  0  0
    1.5850    1.1680    0.1570 C   0  0  0  0  0  0  0  0  0  0  0  0
   -0.1350    2.8460   -0.1650 C   0  0  0  0  0  0  0  0  0  0  0  0
    1.2300    2.5360    0.0560 C   0  0  0  0  0  0  0  0  0  0  0  0
    2.2860    3.5970    0.1070 C   0  0  0  0  0  0  0  0  0  0  0  0
    3.5170    3.4140   -0.5670 C   0  0  0  0  0  0  0  0  0  0  0  0
    2.1270    4.8440    0.7580 C   0  0  0  0  0  0  0  0  0  0  0  0
    4.5040    4.3310   -0.5940 N   0  0  0  0  0  0  0  0  0  0  0  0
    1.0280    5.2100    1.4490 N   0  0  0  0  0  0  0  0  0  0  0  0
    3.1440    5.7920    0.7390 C   0  0  0  0  0  0  0  0  0  0  0  0
    4.3510    5.5100    0.0550 C   0  0  0  0  0  0  0  0  0  0  0  0
    1.3430    6.7180    1.9920 S   0  0  0  0  0  0  0  0  0  0  0  0
    2.8500    6.9380    1.3940 N   0  0  0  0  0  0  0  0  0  0  0  0
    5.4800    6.4560   -0.0330 C   0  0  0  0  0  0  0  0  0  0  0  0
    6.3150    6.4900   -1.0670 N   0  0  0  0  0  0  0  0  0  0  0  0
    5.8430    7.6020    1.2520 B   0  0  0  0  0  0  0  0  0  0  0  0
    7.2900    7.4480   -0.9060 C   0  0  0  0  0  0  0  0  0  0  0  0
    7.1840    8.1310    0.2810 C   0  0  0  0  0  0  0  0  0  0  0  0
    8.0800    9.1970    0.6350 C   0  0  0  0  0  0  0  0  0  0  0  0
    8.6810    9.5480    2.2700 C   0  0  0  0  0  0  0  0  0  0  0  0
    8.6160   10.0990   -0.2500 C   0  0  0  0  0  0  0  0  0  0  0  0
    9.6480   10.9250    1.6960 C   0  0  0  0  0  0  0  0  0  0  0  0
    8.3290   10.3110   -1.9540 S   0  0  0  0  0  0  0  0  0  0  0  0
    9.4490   11.0280    0.3490 C   0  0  0  0  0  0  0  0  0  0  0  0
    9.4420   11.7120   -1.8700 C   0  0  0  0  0  0  0  0  0  0  0  0
    9.9390   11.9650   -0.5960 C   0  0  0  0  0  0  0  0  0  0  0  0
   -1.4830   -0.2920   -0.1880 H   0  0  0  0  0  0  0  0  0  0  0  0
    0.9090   -0.8870    0.1660 H   0  0  0  0  0  0  0  0  0  0  0  0
   -2.1490    2.0970   -0.4120 H   0  0  0  0  0  0  0  0  0  0  0  0
    2.6240    0.8920    0.3150 H   0  0  0  0  0  0  0  0  0  0  0  0
   -0.4410    3.8810   -0.2830 H   0  0  0  0  0  0  0  0  0  0  0  0
    3.7120    2.4960   -1.1200 H   0  0  0  0  0  0  0  0  0  0  0  0
    8.0400    7.5710   -1.6760 H   0  0  0  0  0  0  0  0  0  0  0  0
   10.2410   11.5300    2.3660 H   0  0  0  0  0  0  0  0  0  0  0  0
    9.6440   12.2640   -2.7780 H   0  0  0  0  0  0  0  0  0  0  0  0
   10.6110   12.7780   -0.3430 H   0  0  0  0  0  0  0  0  0  0  0  0
  1  2  2  0  0  0  0
  2  4  1  0  0  0  0
  2 30  1  0  0  0  0
  3  5  2  0  0  0  0
  3  1  1  0  0  0  0
  4 32  1  0  0  0  0
  5  6  1  0  0  0  0
  6  7  1  0  0  0  0
  6  4  2  0  0  0  0
  7  9  1  0  0  0  0
  8  7  2  0  0  0  0
  9 11  2  0  0  0  0
 10  8  1  0  0  0  0
 10 13  2  0  0  0  0
 11 14  1  0  0  0  0
 12  9  1  0  0  0  0
 12 15  2  0  0  0  0
 13 12  1  0  0  0  0
 15 14  1  0  0  0  0
 16 13  1  0  0  0  0
 16 18  1  0  0  0  0
 17 19  1  0  0  0  0
 17 16  2  0  0  0  0
 19 20  1  0  0  0  0
 20 21  1  0  0  0  0
 20 18  2  0  0  0  0
 21 22  1  0  0  0  0
 23 26  1  0  0  0  0
 23 21  2  0  0  0  0
 24 22  2  0  0  0  0
 24 36  1  0  0  0  0
 25 27  2  0  0  0  0
 25 23  1  0  0  0  0
 26 24  1  0  0  0  0
 27 28  1  0  0  0  0
 28 38  1  0  0  0  0
 28 26  2  0  0  0  0
 29  1  1  0  0  0  0
 31  3  1  0  0  0  0
 33  5  1  0  0  0  0
 34  8  1  0  0  0  0
 35 19  1  0  0  0  0
 37 27  1  0  0  0  0
M  END
$$$$
scan_sander_basal_param/min_pdbs/min_pdb_C306_225.pdb
 OpenBabel10021702563D

 38 43  0  0  0  0  0  0  0  0999 V2000
   -0.7290    0.4930    0.0110 C   0  0  0  0  0  0  0  0  0  0  0  0
    0.6080    0.1710    0.2860 C   0  0  0  0  0  0  0  0  0  0  0  0
   -1.0900    1.8260   -0.2350 C   0  0  0  0  0  0  0  0  0  0  0  0
    1.5810    1.1830    0.3220 C   0  0  0  0  0  0  0  0  0  0  0  0
   -0.1140    2.8360   -0.1980 C   0  0  0  0  0  0  0  0  0  0  0  0
    1.2390    2.5390    0.0980 C   0  0  0  0  0  0  0  0  0  0  0  0
    2.3000    3.5960    0.1020 C   0  0  0  0  0  0  0  0  0  0  0  0
    3.5550    3.3550   -0.5090 C   0  0  0  0  0  0  0  0  0  0  0  0
    2.1230    4.8930    0.6440 C   0  0  0  0  0  0  0  0  0  0  0  0
    4.5500    4.2630   -0.5740 N   0  0  0  0  0  0  0  0  0  0  0  0
    1.0060    5.3210    1.2660 N   0  0  0  0  0  0  0  0  0  0  0  0
    3.1460    5.8300    0.5850 C   0  0  0  0  0  0  0  0  0  0  0  0
    4.3690    5.4890   -0.0310 C   0  0  0  0  0  0  0  0  0  0  0  0
    1.3200    6.8670    1.6970 S   0  0  0  0  0  0  0  0  0  0  0  0
    2.8490    7.0280    1.1380 N   0  0  0  0  0  0  0  0  0  0  0  0
    5.4880    6.4360   -0.1400 C   0  0  0  0  0  0  0  0  0  0  0  0
    6.1910    6.6090   -1.2540 N   0  0  0  0  0  0  0  0  0  0  0  0
    5.9950    7.4000    1.2370 B   0  0  0  0  0  0  0  0  0  0  0  0
    7.1850    7.5450   -1.0780 C   0  0  0  0  0  0  0  0  0  0  0  0
    7.2200    8.0640    0.1940 C   0  0  0  0  0  0  0  0  0  0  0  0
    8.1580    9.0820    0.5810 C   0  0  0  0  0  0  0  0  0  0  0  0
    8.9450    9.2180    2.1680 C   0  0  0  0  0  0  0  0  0  0  0  0
    8.5950   10.0970   -0.2330 C   0  0  0  0  0  0  0  0  0  0  0  0
    9.8480   10.6670    1.6750 C   0  0  0  0  0  0  0  0  0  0  0  0
    8.1150   10.5300   -1.8490 S   0  0  0  0  0  0  0  0  0  0  0  0
    9.4970   10.9450    0.3850 C   0  0  0  0  0  0  0  0  0  0  0  0
    9.2400   11.9170   -1.7080 C   0  0  0  0  0  0  0  0  0  0  0  0
    9.8820   12.0030   -0.4780 C   0  0  0  0  0  0  0  0  0  0  0  0
   -1.4830   -0.2880   -0.0180 H   0  0  0  0  0  0  0  0  0  0  0  0
    0.8900   -0.8620    0.4720 H   0  0  0  0  0  0  0  0  0  0  0  0
   -2.1230    2.0770   -0.4590 H   0  0  0  0  0  0  0  0  0  0  0  0
    2.6110    0.9160    0.5410 H   0  0  0  0  0  0  0  0  0  0  0  0
   -0.4080    3.8590   -0.4110 H   0  0  0  0  0  0  0  0  0  0  0  0
    3.7650    2.3940   -0.9770 H   0  0  0  0  0  0  0  0  0  0  0  0
    7.8430    7.7760   -1.9050 H   0  0  0  0  0  0  0  0  0  0  0  0
   10.5190   11.1830    2.3460 H   0  0  0  0  0  0  0  0  0  0  0  0
    9.3400   12.5870   -2.5530 H   0  0  0  0  0  0  0  0  0  0  0  0
   10.5840   12.7810   -0.1980 H   0  0  0  0  0  0  0  0  0  0  0  0
  1  2  2  0  0  0  0
  2  4  1  0  0  0  0
  2 30  1  0  0  0  0
  3  5  2  0  0  0  0
  3  1  1  0  0  0  0
  4 32  1  0  0  0  0
  5  6  1  0  0  0  0
  6  7  1  0  0  0  0
  6  4  2  0  0  0  0
  7  9  1  0  0  0  0
  8  7  2  0  0  0  0
  9 11  2  0  0  0  0
 10  8  1  0  0  0  0
 10 13  2  0  0  0  0
 11 14  1  0  0  0  0
 12  9  1  0  0  0  0
 12 15  2  0  0  0  0
 13 12  1  0  0  0  0
 15 14  1  0  0  0  0
 16 13  1  0  0  0  0
 16 18  1  0  0  0  0
 17 19  1  0  0  0  0
 17 16  2  0  0  0  0
 19 20  1  0  0  0  0
 20 21  1  0  0  0  0
 20 18  2  0  0  0  0
 21 22  1  0  0  0  0
 23 26  1  0  0  0  0
 23 21  2  0  0  0  0
 24 22  2  0  0  0  0
 24 36  1  0  0  0  0
 25 27  2  0  0  0  0
 25 23  1  0  0  0  0
 26 24  1  0  0  0  0
 27 28  1  0  0  0  0
 28 38  1  0  0  0  0
 28 26  2  0  0  0  0
 29  1  1  0  0  0  0
 31  3  1  0  0  0  0
 33  5  1  0  0  0  0
 34  8  1  0  0  0  0
 35 19  1  0  0  0  0
 37 27  1  0  0  0  0
M  END
$$$$
scan_sander_basal_param/min_pdbs/min_pdb_C306_240.pdb
 OpenBabel10021702563D

 38 43  0  0  0  0  0  0  0  0999 V2000
   -0.7210    0.4970    0.1410 C   0  0  0  0  0  0  0  0  0  0  0  0
    0.6010    0.2010    0.5070 C   0  0  0  0  0  0  0  0  0  0  0  0
   -1.0650    1.8040   -0.2370 C   0  0  0  0  0  0  0  0  0  0  0  0
    1.5750    1.2130    0.5000 C   0  0  0  0  0  0  0  0  0  0  0  0
   -0.0890    2.8130   -0.2430 C   0  0  0  0  0  0  0  0  0  0  0  0
    1.2480    2.5440    0.1410 C   0  0  0  0  0  0  0  0  0  0  0  0
    2.3100    3.5990    0.1030 C   0  0  0  0  0  0  0  0  0  0  0  0
    3.5930    3.3070   -0.4250 C   0  0  0  0  0  0  0  0  0  0  0  0
    2.1100    4.9380    0.5210 C   0  0  0  0  0  0  0  0  0  0  0  0
    4.5930    4.2080   -0.5250 N   0  0  0  0  0  0  0  0  0  0  0  0
    0.9700    5.4170    1.0580 N   0  0  0  0  0  0  0  0  0  0  0  0
    3.1350    5.8670    0.4240 C   0  0  0  0  0  0  0  0  0  0  0  0
    4.3800    5.4770   -0.1090 C   0  0  0  0  0  0  0  0  0  0  0  0
    1.2760    6.9940    1.3730 S   0  0  0  0  0  0  0  0  0  0  0  0
    2.8290    7.1060    0.8680 N   0  0  0  0  0  0  0  0  0  0  0  0
    5.4900    6.4220   -0.2350 C   0  0  0  0  0  0  0  0  0  0  0  0
    6.0620    6.7330   -1.3910 N   0  0  0  0  0  0  0  0  0  0  0  0
    6.1410    7.2140    1.1880 B   0  0  0  0  0  0  0  0  0  0  0  0
    7.0740    7.6490   -1.2100 C   0  0  0  0  0  0  0  0  0  0  0  0
    7.2490    8.0090    0.1060 C   0  0  0  0  0  0  0  0  0  0  0  0
    8.2290    8.9800    0.5100 C   0  0  0  0  0  0  0  0  0  0  0  0
    9.1840    8.9280    2.0070 C   0  0  0  0  0  0  0  0  0  0  0  0
    8.5800   10.0900   -0.2170 C   0  0  0  0  0  0  0  0  0  0  0  0
   10.0360   10.4340    1.5990 C   0  0  0  0  0  0  0  0  0  0  0  0
    7.9290   10.7130   -1.7070 S   0  0  0  0  0  0  0  0  0  0  0  0
    9.5480   10.8640    0.3990 C   0  0  0  0  0  0  0  0  0  0  0  0
    9.0700   12.0820   -1.5200 C   0  0  0  0  0  0  0  0  0  0  0  0
    9.8430   12.0230   -0.3650 C   0  0  0  0  0  0  0  0  0  0  0  0
   -1.4750   -0.2840    0.1450 H   0  0  0  0  0  0  0  0  0  0  0  0
    0.8710   -0.8120    0.7950 H   0  0  0  0  0  0  0  0  0  0  0  0
   -2.0850    2.0330   -0.5310 H   0  0  0  0  0  0  0  0  0  0  0  0
    2.5920    0.9670    0.7890 H   0  0  0  0  0  0  0  0  0  0  0  0
   -0.3680    3.8140   -0.5570 H   0  0  0  0  0  0  0  0  0  0  0  0
    3.8230    2.3080   -0.7940 H   0  0  0  0  0  0  0  0  0  0  0  0
    7.6400    7.9860   -2.0680 H   0  0  0  0  0  0  0  0  0  0  0  0
   10.7780   10.8700    2.2520 H   0  0  0  0  0  0  0  0  0  0  0  0
    9.0810   12.8500   -2.2820 H   0  0  0  0  0  0  0  0  0  0  0  0
   10.5740   12.7670   -0.0710 H   0  0  0  0  0  0  0  0  0  0  0  0
  1 29  1  0  0  0  0
  1  2  2  0  0  0  0
  2 30  1  0  0  0  0
  3  1  1  0  0  0  0
  4  2  1  0  0  0  0
  4 32  1  0  0  0  0
  5  3  2  0  0  0  0
  5  6  1  0  0  0  0
  6  4  2  0  0  0  0
  7  6  1  0  0  0  0
  7  9  1  0  0  0  0
  8  7  2  0  0  0  0
  9 11  2  0  0  0  0
 10  8  1  0  0  0  0
 10 13  2  0  0  0  0
 11 14  1  0  0  0  0
 12  9  1  0  0  0  0
 12 15  2  0  0  0  0
 13 12  1  0  0  0  0
 15 14  1  0  0  0  0
 16 13  1  0  0  0  0
 16 18  1  0  0  0  0
 17 19  1  0  0  0  0
 17 16  2  0  0  0  0
 19 20  1  0  0  0  0
 20 21  1  0  0  0  0
 20 18  2  0  0  0  0
 21 22  1  0  0  0  0
 23 26  1  0  0  0  0
 23 21  2  0  0  0  0
 24 22  2  0  0  0  0
 24 36  1  0  0  0  0
 25 27  2  0  0  0  0
 25 23  1  0  0  0  0
 26 24  1  0  0  0  0
 27 28  1  0  0  0  0
 28 38  1  0  0  0  0
 28 26  2  0  0  0  0
 31  3  1  0  0  0  0
 33  5  1  0  0  0  0
 34  8  1  0  0  0  0
 35 19  1  0  0  0  0
 37 27  1  0  0  0  0
M  END
$$$$
scan_sander_basal_param/min_pdbs/min_pdb_C306_255.pdb
 OpenBabel10021702563D

 38 43  0  0  0  0  0  0  0  0999 V2000
   -0.6910    0.4820    0.2640 C   0  0  0  0  0  0  0  0  0  0  0  0
    0.6090    0.2380    0.7290 C   0  0  0  0  0  0  0  0  0  0  0  0
   -1.0240    1.7440   -0.2510 C   0  0  0  0  0  0  0  0  0  0  0  0
    1.5740    1.2570    0.6830 C   0  0  0  0  0  0  0  0  0  0  0  0
   -0.0570    2.7610   -0.2950 C   0  0  0  0  0  0  0  0  0  0  0  0
    1.2580    2.5460    0.1870 C   0  0  0  0  0  0  0  0  0  0  0  0
    2.3120    3.6070    0.1100 C   0  0  0  0  0  0  0  0  0  0  0  0
    3.6250    3.2860   -0.3160 C   0  0  0  0  0  0  0  0  0  0  0  0
    2.0760    4.9750    0.3920 C   0  0  0  0  0  0  0  0  0  0  0  0
    4.6210    4.1870   -0.4430 N   0  0  0  0  0  0  0  0  0  0  0  0
    0.9060    5.4870    0.8250 N   0  0  0  0  0  0  0  0  0  0  0  0
    3.0960    5.9060    0.2650 C   0  0  0  0  0  0  0  0  0  0  0  0
    4.3690    5.4850   -0.1640 C   0  0  0  0  0  0  0  0  0  0  0  0
    1.1850    7.0890    1.0160 S   0  0  0  0  0  0  0  0  0  0  0  0
    2.7630    7.1740    0.5850 N   0  0  0  0  0  0  0  0  0  0  0  0
    5.4720    6.4330   -0.3060 C   0  0  0  0  0  0  0  0  0  0  0  0
    5.9150    6.8750   -1.4750 N   0  0  0  0  0  0  0  0  0  0  0  0
    6.2690    7.0640    1.1200 B   0  0  0  0  0  0  0  0  0  0  0  0
    6.9490    7.7680   -1.3000 C   0  0  0  0  0  0  0  0  0  0  0  0
    7.2640    7.9780    0.0220 C   0  0  0  0  0  0  0  0  0  0  0  0
    8.2910    8.8990    0.4270 C   0  0  0  0  0  0  0  0  0  0  0  0
    9.3970    8.6810    1.8000 C   0  0  0  0  0  0  0  0  0  0  0  0
    8.5750   10.0850   -0.2030 C   0  0  0  0  0  0  0  0  0  0  0  0
   10.2170   10.2240    1.4760 C   0  0  0  0  0  0  0  0  0  0  0  0
    7.7780   10.8700   -1.5370 S   0  0  0  0  0  0  0  0  0  0  0  0
    9.6100   10.7860    0.3890 C   0  0  0  0  0  0  0  0  0  0  0  0
    8.9460   12.2120   -1.3200 C   0  0  0  0  0  0  0  0  0  0  0  0
    9.8340   12.0240   -0.2670 C   0  0  0  0  0  0  0  0  0  0  0  0
   -1.4380   -0.3060    0.2970 H   0  0  0  0  0  0  0  0  0  0  0  0
    0.8700   -0.7410    1.1230 H   0  0  0  0  0  0  0  0  0  0  0  0
   -2.0280    1.9320   -0.6210 H   0  0  0  0  0  0  0  0  0  0  0  0
    2.5750    1.0530    1.0510 H   0  0  0  0  0  0  0  0  0  0  0  0
   -0.3260    3.7260   -0.7140 H   0  0  0  0  0  0  0  0  0  0  0  0
    3.8840    2.2600   -0.5760 H   0  0  0  0  0  0  0  0  0  0  0  0
    7.4240    8.2010   -2.1700 H   0  0  0  0  0  0  0  0  0  0  0  0
   11.0280   10.5860    2.0910 H   0  0  0  0  0  0  0  0  0  0  0  0
    8.8840   13.0610   -1.9880 H   0  0  0  0  0  0  0  0  0  0  0  0
   10.6000   12.7310    0.0300 H   0  0  0  0  0  0  0  0  0  0  0  0
  1 29  1  0  0  0  0
  1  2  2  0  0  0  0
  2 30  1  0  0  0  0
  3  1  1  0  0  0  0
  4  2  1  0  0  0  0
  4 32  1  0  0  0  0
  5  3  2  0  0  0  0
  5  6  1  0  0  0  0
  6  4  2  0  0  0  0
  7  6  1  0  0  0  0
  7  9  1  0  0  0  0
  8  7  2  0  0  0  0
  9 11  2  0  0  0  0
 10  8  1  0  0  0  0
 10 13  2  0  0  0  0
 11 14  1  0  0  0  0
 12  9  1  0  0  0  0
 12 15  2  0  0  0  0
 13 12  1  0  0  0  0
 15 14  1  0  0  0  0
 16 13  1  0  0  0  0
 16 18  1  0  0  0  0
 17 19  1  0  0  0  0
 17 16  2  0  0  0  0
 19 20  1  0  0  0  0
 20 21  1  0  0  0  0
 20 18  2  0  0  0  0
 21 22  1  0  0  0  0
 23 26  1  0  0  0  0
 23 21  2  0  0  0  0
 24 22  2  0  0  0  0
 24 36  1  0  0  0  0
 25 27  2  0  0  0  0
 25 23  1  0  0  0  0
 26 24  1  0  0  0  0
 27 28  1  0  0  0  0
 28 38  1  0  0  0  0
 28 26  2  0  0  0  0
 31  3  1  0  0  0  0
 33  5  1  0  0  0  0
 34  8  1  0  0  0  0
 35 19  1  0  0  0  0
 37 27  1  0  0  0  0
M  END
$$$$
scan_sander_basal_param/min_pdbs/min_pdb_C306_270.pdb
 OpenBabel10021702563D

 38 43  0  0  0  0  0  0  0  0999 V2000
   -0.6520    0.4560    0.3640 C   0  0  0  0  0  0  0  0  0  0  0  0
    0.6200    0.2820    0.9300 C   0  0  0  0  0  0  0  0  0  0  0  0
   -0.9720    1.6610   -0.2790 C   0  0  0  0  0  0  0  0  0  0  0  0
    1.5680    1.3160    0.8560 C   0  0  0  0  0  0  0  0  0  0  0  0
   -0.0220    2.6920   -0.3510 C   0  0  0  0  0  0  0  0  0  0  0  0
    1.2620    2.5490    0.2290 C   0  0  0  0  0  0  0  0  0  0  0  0
    2.3000    3.6230    0.1260 C   0  0  0  0  0  0  0  0  0  0  0  0
    3.6440    3.2950   -0.1870 C   0  0  0  0  0  0  0  0  0  0  0  0
    2.0240    5.0050    0.2710 C   0  0  0  0  0  0  0  0  0  0  0  0
    4.6310    4.2050   -0.3320 N   0  0  0  0  0  0  0  0  0  0  0  0
    0.8200    5.5260    0.5850 N   0  0  0  0  0  0  0  0  0  0  0  0
    3.0340    5.9440    0.1250 C   0  0  0  0  0  0  0  0  0  0  0  0
    4.3380    5.5160   -0.1870 C   0  0  0  0  0  0  0  0  0  0  0  0
    1.0610    7.1440    0.6540 S   0  0  0  0  0  0  0  0  0  0  0  0
    2.6610    7.2270    0.3160 N   0  0  0  0  0  0  0  0  0  0  0  0
    5.4310    6.4710   -0.3450 C   0  0  0  0  0  0  0  0  0  0  0  0
    5.7510    7.0350   -1.5020 N   0  0  0  0  0  0  0  0  0  0  0  0
    6.3840    6.9420    1.0450 B   0  0  0  0  0  0  0  0  0  0  0  0
    6.8110    7.9000   -1.3450 C   0  0  0  0  0  0  0  0  0  0  0  0
    7.2710    7.9640   -0.0510 C   0  0  0  0  0  0  0  0  0  0  0  0
    8.3500    8.8310    0.3360 C   0  0  0  0  0  0  0  0  0  0  0  0
    9.5940    8.4590    1.5490 C   0  0  0  0  0  0  0  0  0  0  0  0
    8.5850   10.0760   -0.1910 C   0  0  0  0  0  0  0  0  0  0  0  0
   10.4010   10.0240    1.3030 C   0  0  0  0  0  0  0  0  0  0  0  0
    7.6620   11.0060   -1.3380 S   0  0  0  0  0  0  0  0  0  0  0  0
    9.6900   10.7040    0.3570 C   0  0  0  0  0  0  0  0  0  0  0  0
    8.8700   12.3090   -1.1080 C   0  0  0  0  0  0  0  0  0  0  0  0
    9.8640   12.0030   -0.1850 C   0  0  0  0  0  0  0  0  0  0  0  0
   -1.3860   -0.3430    0.4200 H   0  0  0  0  0  0  0  0  0  0  0  0
    0.8710   -0.6520    1.4240 H   0  0  0  0  0  0  0  0  0  0  0  0
   -1.9540    1.7940   -0.7270 H   0  0  0  0  0  0  0  0  0  0  0  0
    2.5460    1.1660    1.3020 H   0  0  0  0  0  0  0  0  0  0  0  0
   -0.2800    3.6110   -0.8690 H   0  0  0  0  0  0  0  0  0  0  0  0
    3.9360    2.2570   -0.3390 H   0  0  0  0  0  0  0  0  0  0  0  0
    7.1960    8.4230   -2.2100 H   0  0  0  0  0  0  0  0  0  0  0  0
   11.2800   10.3120    1.8610 H   0  0  0  0  0  0  0  0  0  0  0  0
    8.7520   13.2250   -1.6710 H   0  0  0  0  0  0  0  0  0  0  0  0
   10.6700   12.6700    0.1010 H   0  0  0  0  0  0  0  0  0  0  0  0
  1 29  1  0  0  0  0
  1  2  2  0  0  0  0
  2 30  1  0  0  0  0
  3  1  1  0  0  0  0
  4  2  1  0  0  0  0
  4 32  1  0  0  0  0
  5  3  2  0  0  0  0
  5  6  1  0  0  0  0
  6  4  2  0  0  0  0
  7  6  1  0  0  0  0
  7  9  1  0  0  0  0
  8  7  2  0  0  0  0
  9 11  2  0  0  0  0
 10  8  1  0  0  0  0
 10 13  2  0  0  0  0
 11 14  1  0  0  0  0
 12  9  1  0  0  0  0
 12 15  2  0  0  0  0
 13 12  1  0  0  0  0
 15 14  1  0  0  0  0
 16 13  1  0  0  0  0
 16 18  1  0  0  0  0
 17 19  1  0  0  0  0
 17 16  2  0  0  0  0
 19 20  1  0  0  0  0
 20 21  1  0  0  0  0
 20 18  2  0  0  0  0
 21 22  1  0  0  0  0
 23 21  2  0  0  0  0
 23 26  1  0  0  0  0
 24 22  2  0  0  0  0
 24 36  1  0  0  0  0
 25 27  2  0  0  0  0
 25 23  1  0  0  0  0
 26 24  1  0  0  0  0
 27 28  1  0  0  0  0
 28 38  1  0  0  0  0
 28 26  2  0  0  0  0
 31  3  1  0  0  0  0
 33  5  1  0  0  0  0
 34  8  1  0  0  0  0
 35 19  1  0  0  0  0
 37 27  1  0  0  0  0
M  END
$$$$
scan_sander_basal_param/min_pdbs/min_pdb_C306_285.pdb
 OpenBabel10021702563D

 38 43  0  0  0  0  0  0  0  0999 V2000
   -0.6140    0.4330    0.4560 C   0  0  0  0  0  0  0  0  0  0  0  0
    0.6200    0.3380    1.1160 C   0  0  0  0  0  0  0  0  0  0  0  0
   -0.9130    1.5710   -0.3070 C   0  0  0  0  0  0  0  0  0  0  0  0
    1.5510    1.3850    1.0170 C   0  0  0  0  0  0  0  0  0  0  0  0
    0.0200    2.6160   -0.4040 C   0  0  0  0  0  0  0  0  0  0  0  0
    1.2650    2.5530    0.2690 C   0  0  0  0  0  0  0  0  0  0  0  0
    2.2870    3.6400    0.1430 C   0  0  0  0  0  0  0  0  0  0  0  0
    3.6540    3.3210   -0.0530 C   0  0  0  0  0  0  0  0  0  0  0  0
    1.9740    5.0220    0.1520 C   0  0  0  0  0  0  0  0  0  0  0  0
    4.6310    4.2400   -0.2100 N   0  0  0  0  0  0  0  0  0  0  0  0
    0.7430    5.5370    0.3430 N   0  0  0  0  0  0  0  0  0  0  0  0
    2.9740    5.9710   -0.0070 C   0  0  0  0  0  0  0  0  0  0  0  0
    4.3040    5.5510   -0.1950 C   0  0  0  0  0  0  0  0  0  0  0  0
    0.9460    7.1610    0.2910 S   0  0  0  0  0  0  0  0  0  0  0  0
    2.5620    7.2550    0.0520 N   0  0  0  0  0  0  0  0  0  0  0  0
    5.3900    6.5120   -0.3700 C   0  0  0  0  0  0  0  0  0  0  0  0
    5.5950    7.1940   -1.4900 N   0  0  0  0  0  0  0  0  0  0  0  0
    6.4990    6.8230    0.9480 B   0  0  0  0  0  0  0  0  0  0  0  0
    6.6800    8.0320   -1.3590 C   0  0  0  0  0  0  0  0  0  0  0  0
    7.2770    7.9540   -0.1230 C   0  0  0  0  0  0  0  0  0  0  0  0
    8.4050    8.7710    0.2340 C   0  0  0  0  0  0  0  0  0  0  0  0
    9.7670    8.2680    1.2580 C   0  0  0  0  0  0  0  0  0  0  0  0
    8.5990   10.0660   -0.1790 C   0  0  0  0  0  0  0  0  0  0  0  0
   10.5650    9.8480    1.0940 C   0  0  0  0  0  0  0  0  0  0  0  0
    7.5710   11.1160   -1.1130 S   0  0  0  0  0  0  0  0  0  0  0  0
    9.7660   10.6280    0.3080 C   0  0  0  0  0  0  0  0  0  0  0  0
    8.8150   12.3830   -0.8780 C   0  0  0  0  0  0  0  0  0  0  0  0
    9.8990   11.9780   -0.1060 C   0  0  0  0  0  0  0  0  0  0  0  0
   -1.3350   -0.3770    0.5310 H   0  0  0  0  0  0  0  0  0  0  0  0
    0.8550   -0.5460    1.7030 H   0  0  0  0  0  0  0  0  0  0  0  0
   -1.8650    1.6420   -0.8270 H   0  0  0  0  0  0  0  0  0  0  0  0
    2.5000    1.2970    1.5370 H   0  0  0  0  0  0  0  0  0  0  0  0
   -0.2200    3.4820   -1.0140 H   0  0  0  0  0  0  0  0  0  0  0  0
    3.9760    2.2810   -0.0960 H   0  0  0  0  0  0  0  0  0  0  0  0
    6.9780    8.6430   -2.2000 H   0  0  0  0  0  0  0  0  0  0  0  0
   11.5030   10.0730    1.5820 H   0  0  0  0  0  0  0  0  0  0  0  0
    8.6500   13.3560   -1.3240 H   0  0  0  0  0  0  0  0  0  0  0  0
   10.7400   12.6080    0.1600 H   0  0  0  0  0  0  0  0  0  0  0  0
  1 29  1  0  0  0  0
  1  2  2  0  0  0  0
  2 30  1  0  0  0  0
  3  1  1  0  0  0  0
  4  2  1  0  0  0  0
  4 32  1  0  0  0  0
  5  3  2  0  0  0  0
  5  6  1  0  0  0  0
  6  4  2  0  0  0  0
  7  9  1  0  0  0  0
  7  6  1  0  0  0  0
  8  7  2  0  0  0  0
  9 11  2  0  0  0  0
 10 13  2  0  0  0  0
 10  8  1  0  0  0  0
 12 15  2  0  0  0  0
 12  9  1  0  0  0  0
 13 12  1  0  0  0  0
 14 11  1  0  0  0  0
 15 14  1  0  0  0  0
 16 13  1  0  0  0  0
 16 18  1  0  0  0  0
 17 19  1  0  0  0  0
 17 16  2  0  0  0  0
 19 20  1  0  0  0  0
 20 21  1  0  0  0  0
 20 18  2  0  0  0  0
 21 22  1  0  0  0  0
 23 21  2  0  0  0  0
 23 26  1  0  0  0  0
 24 22  2  0  0  0  0
 24 36  1  0  0  0  0
 25 27  2  0  0  0  0
 25 23  1  0  0  0  0
 26 24  1  0  0  0  0
 27 28  1  0  0  0  0
 28 38  1  0  0  0  0
 28 26  2  0  0  0  0
 31  3  1  0  0  0  0
 33  5  1  0  0  0  0
 34  8  1  0  0  0  0
 35 19  1  0  0  0  0
 37 27  1  0  0  0  0
M  END
$$$$
scan_sander_basal_param/min_pdbs/min_pdb_C306_300.pdb
 OpenBabel10021702563D

 38 43  0  0  0  0  0  0  0  0999 V2000
   -0.5650    0.3990    0.5360 C   0  0  0  0  0  0  0  0  0  0  0  0
    0.6240    0.3930    1.2800 C   0  0  0  0  0  0  0  0  0  0  0  0
   -0.8420    1.4660   -0.3320 C   0  0  0  0  0  0  0  0  0  0  0  0
    1.5320    1.4580    1.1590 C   0  0  0  0  0  0  0  0  0  0  0  0
    0.0680    2.5290   -0.4500 C   0  0  0  0  0  0  0  0  0  0  0  0
    1.2670    2.5570    0.3050 C   0  0  0  0  0  0  0  0  0  0  0  0
    2.2660    3.6620    0.1610 C   0  0  0  0  0  0  0  0  0  0  0  0
    3.6510    3.3720    0.0800 C   0  0  0  0  0  0  0  0  0  0  0  0
    1.9190    5.0300    0.0410 C   0  0  0  0  0  0  0  0  0  0  0  0
    4.6120    4.3050   -0.0860 N   0  0  0  0  0  0  0  0  0  0  0  0
    0.6630    5.5170    0.1110 N   0  0  0  0  0  0  0  0  0  0  0  0
    2.9010    5.9950   -0.1270 C   0  0  0  0  0  0  0  0  0  0  0  0
    4.2530    5.6040   -0.1940 C   0  0  0  0  0  0  0  0  0  0  0  0
    0.8250    7.1380   -0.0530 S   0  0  0  0  0  0  0  0  0  0  0  0
    2.4500    7.2660   -0.1940 N   0  0  0  0  0  0  0  0  0  0  0  0
    5.3310    6.5740   -0.3830 C   0  0  0  0  0  0  0  0  0  0  0  0
    5.4300    7.3730   -1.4380 N   0  0  0  0  0  0  0  0  0  0  0  0
    6.5890    6.7270    0.8270 B   0  0  0  0  0  0  0  0  0  0  0  0
    6.5410    8.1810   -1.3390 C   0  0  0  0  0  0  0  0  0  0  0  0
    7.2690    7.9620   -0.1940 C   0  0  0  0  0  0  0  0  0  0  0  0
    8.4460    8.7250    0.1220 C   0  0  0  0  0  0  0  0  0  0  0  0
    9.9010    8.1000    0.9250 C   0  0  0  0  0  0  0  0  0  0  0  0
    8.6210   10.0550   -0.1670 C   0  0  0  0  0  0  0  0  0  0  0  0
   10.7100    9.6810    0.8470 C   0  0  0  0  0  0  0  0  0  0  0  0
    7.5180   11.2110   -0.8600 S   0  0  0  0  0  0  0  0  0  0  0  0
    9.8450   10.5500    0.2450 C   0  0  0  0  0  0  0  0  0  0  0  0
    8.8070   12.4340   -0.6280 C   0  0  0  0  0  0  0  0  0  0  0  0
    9.9600   11.9360   -0.0320 C   0  0  0  0  0  0  0  0  0  0  0  0
   -1.2680   -0.4240    0.6270 H   0  0  0  0  0  0  0  0  0  0  0  0
    0.8420   -0.4350    1.9490 H   0  0  0  0  0  0  0  0  0  0  0  0
   -1.7580    1.4670   -0.9170 H   0  0  0  0  0  0  0  0  0  0  0  0
    2.4460    1.4400    1.7450 H   0  0  0  0  0  0  0  0  0  0  0  0
   -0.1530    3.3370   -1.1400 H   0  0  0  0  0  0  0  0  0  0  0  0
    4.0020    2.3420    0.1390 H   0  0  0  0  0  0  0  0  0  0  0  0
    6.7570    8.8790   -2.1380 H   0  0  0  0  0  0  0  0  0  0  0  0
   11.7000    9.8420    1.2480 H   0  0  0  0  0  0  0  0  0  0  0  0
    8.6140   13.4510   -0.9440 H   0  0  0  0  0  0  0  0  0  0  0  0
   10.8380   12.5250    0.2060 H   0  0  0  0  0  0  0  0  0  0  0  0
  1 29  1  0  0  0  0
  1  2  2  0  0  0  0
  2 30  1  0  0  0  0
  3  1  1  0  0  0  0
  4  2  1  0  0  0  0
  4 32  1  0  0  0  0
  5  3  2  0  0  0  0
  5  6  1  0  0  0  0
  6  4  2  0  0  0  0
  7  6  1  0  0  0  0
  8 34  1  0  0  0  0
  8  7  2  0  0  0  0
  9 11  2  0  0  0  0
  9  7  1  0  0  0  0
 10  8  1  0  0  0  0
 12  9  1  0  0  0  0
 13 12  1  0  0  0  0
 13 10  2  0  0  0  0
 14 11  1  0  0  0  0
 15 12  2  0  0  0  0
 15 14  1  0  0  0  0
 16 13  1  0  0  0  0
 16 18  1  0  0  0  0
 17 19  1  0  0  0  0
 17 16  2  0  0  0  0
 19 20  1  0  0  0  0
 20 21  1  0  0  0  0
 20 18  2  0  0  0  0
 21 22  1  0  0  0  0
 23 21  2  0  0  0  0
 23 26  1  0  0  0  0
 24 22  2  0  0  0  0
 24 36  1  0  0  0  0
 25 27  2  0  0  0  0
 25 23  1  0  0  0  0
 26 24  1  0  0  0  0
 27 28  1  0  0  0  0
 28 38  1  0  0  0  0
 28 26  2  0  0  0  0
 31  3  1  0  0  0  0
 33  5  1  0  0  0  0
 35 19  1  0  0  0  0
 37 27  1  0  0  0  0
M  END
$$$$
scan_sander_basal_param/min_pdbs/min_pdb_C306_315.pdb
 OpenBabel10021702563D

 38 43  0  0  0  0  0  0  0  0999 V2000
   -0.5060    0.3570    0.6000 C   0  0  0  0  0  0  0  0  0  0  0  0
    0.6310    0.4450    1.4170 C   0  0  0  0  0  0  0  0  0  0  0  0
   -0.7580    1.3510   -0.3560 C   0  0  0  0  0  0  0  0  0  0  0  0
    1.5110    1.5300    1.2800 C   0  0  0  0  0  0  0  0  0  0  0  0
    0.1240    2.4360   -0.4900 C   0  0  0  0  0  0  0  0  0  0  0  0
    1.2690    2.5580    0.3360 C   0  0  0  0  0  0  0  0  0  0  0  0
    2.2410    3.6860    0.1780 C   0  0  0  0  0  0  0  0  0  0  0  0
    3.6360    3.4400    0.2060 C   0  0  0  0  0  0  0  0  0  0  0  0
    1.8610    5.0290   -0.0600 C   0  0  0  0  0  0  0  0  0  0  0  0
    4.5750    4.3930    0.0350 N   0  0  0  0  0  0  0  0  0  0  0  0
    0.5880    5.4720   -0.1020 N   0  0  0  0  0  0  0  0  0  0  0  0
    2.8220    6.0160   -0.2340 C   0  0  0  0  0  0  0  0  0  0  0  0
    4.1890    5.6710   -0.1860 C   0  0  0  0  0  0  0  0  0  0  0  0
    0.7040    7.0830   -0.3670 S   0  0  0  0  0  0  0  0  0  0  0  0
    2.3290    7.2610   -0.4150 N   0  0  0  0  0  0  0  0  0  0  0  0
    5.2600    6.6530   -0.3840 C   0  0  0  0  0  0  0  0  0  0  0  0
    5.2650    7.5680   -1.3450 N   0  0  0  0  0  0  0  0  0  0  0  0
    6.6530    6.6510    0.6820 B   0  0  0  0  0  0  0  0  0  0  0  0
    6.3990    8.3470   -1.2830 C   0  0  0  0  0  0  0  0  0  0  0  0
    7.2460    7.9870   -0.2620 C   0  0  0  0  0  0  0  0  0  0  0  0
    8.4700    8.6930    0.0010 C   0  0  0  0  0  0  0  0  0  0  0  0
    9.9910    7.9600    0.5550 C   0  0  0  0  0  0  0  0  0  0  0  0
    8.6460   10.0460   -0.1530 C   0  0  0  0  0  0  0  0  0  0  0  0
   10.8260    9.5290    0.5640 C   0  0  0  0  0  0  0  0  0  0  0  0
    7.5030   11.2880   -0.5790 S   0  0  0  0  0  0  0  0  0  0  0  0
    9.9220   10.4730    0.1690 C   0  0  0  0  0  0  0  0  0  0  0  0
    8.8420   12.4590   -0.3600 C   0  0  0  0  0  0  0  0  0  0  0  0
   10.0410   11.8810    0.0400 C   0  0  0  0  0  0  0  0  0  0  0  0
   -1.1880   -0.4830    0.7040 H   0  0  0  0  0  0  0  0  0  0  0  0
    0.8300   -0.3270    2.1560 H   0  0  0  0  0  0  0  0  0  0  0  0
   -1.6320    1.2800   -0.9970 H   0  0  0  0  0  0  0  0  0  0  0  0
    2.3840    1.5860    1.9240 H   0  0  0  0  0  0  0  0  0  0  0  0
   -0.0760    3.1860   -1.2490 H   0  0  0  0  0  0  0  0  0  0  0  0
    4.0140    2.4300    0.3600 H   0  0  0  0  0  0  0  0  0  0  0  0
    6.5420    9.1290   -2.0170 H   0  0  0  0  0  0  0  0  0  0  0  0
   11.8590    9.6290    0.8640 H   0  0  0  0  0  0  0  0  0  0  0  0
    8.6410   13.5080   -0.5340 H   0  0  0  0  0  0  0  0  0  0  0  0
   10.9560   12.4270    0.2390 H   0  0  0  0  0  0  0  0  0  0  0  0
  1 29  1  0  0  0  0
  1  2  2  0  0  0  0
  2 30  1  0  0  0  0
  3  1  1  0  0  0  0
  4  2  1  0  0  0  0
  4 32  1  0  0  0  0
  5  3  2  0  0  0  0
  5  6  1  0  0  0  0
  6  4  2  0  0  0  0
  7  8  2  0  0  0  0
  7  6  1  0  0  0  0
  8 34  1  0  0  0  0
  9  7  1  0  0  0  0
 10  8  1  0  0  0  0
 11  9  2  0  0  0  0
 12 13  1  0  0  0  0
 12  9  1  0  0  0  0
 13 10  2  0  0  0  0
 14 11  1  0  0  0  0
 15 14  1  0  0  0  0
 15 12  2  0  0  0  0
 16 13  1  0  0  0  0
 16 18  1  0  0  0  0
 17 19  1  0  0  0  0
 17 16  2  0  0  0  0
 19 20  1  0  0  0  0
 20 21  1  0  0  0  0
 20 18  2  0  0  0  0
 21 22  1  0  0  0  0
 22 24  2  0  0  0  0
 23 21  2  0  0  0  0
 23 26  1  0  0  0  0
 24 36  1  0  0  0  0
 25 27  2  0  0  0  0
 25 23  1  0  0  0  0
 26 24  1  0  0  0  0
 27 28  1  0  0  0  0
 28 26  2  0  0  0  0
 28 38  1  0  0  0  0
 31  3  1  0  0  0  0
 33  5  1  0  0  0  0
 35 19  1  0  0  0  0
 37 27  1  0  0  0  0
M  END
$$$$
scan_sander_basal_param/min_pdbs/min_pdb_C306_330.pdb
 OpenBabel10021702563D

 38 43  0  0  0  0  0  0  0  0999 V2000
   -0.4440    0.3150    0.6600 C   0  0  0  0  0  0  0  0  0  0  0  0
    0.6350    0.4960    1.5390 C   0  0  0  0  0  0  0  0  0  0  0  0
   -0.6650    1.2360   -0.3740 C   0  0  0  0  0  0  0  0  0  0  0  0
    1.4860    1.6020    1.3860 C   0  0  0  0  0  0  0  0  0  0  0  0
    0.1880    2.3410   -0.5240 C   0  0  0  0  0  0  0  0  0  0  0  0
    1.2730    2.5570    0.3620 C   0  0  0  0  0  0  0  0  0  0  0  0
    2.2160    3.7070    0.1900 C   0  0  0  0  0  0  0  0  0  0  0  0
    3.6130    3.5150    0.3220 C   0  0  0  0  0  0  0  0  0  0  0  0
    1.8110    5.0180   -0.1600 C   0  0  0  0  0  0  0  0  0  0  0  0
    4.5290    4.4880    0.1450 N   0  0  0  0  0  0  0  0  0  0  0  0
    0.5280    5.4080   -0.3080 N   0  0  0  0  0  0  0  0  0  0  0  0
    2.7490    6.0270   -0.3400 C   0  0  0  0  0  0  0  0  0  0  0  0
    4.1240    5.7370   -0.1850 C   0  0  0  0  0  0  0  0  0  0  0  0
    0.6040    7.0020   -0.6710 S   0  0  0  0  0  0  0  0  0  0  0  0
    2.2210    7.2360   -0.6330 N   0  0  0  0  0  0  0  0  0  0  0  0
    5.1890    6.7330   -0.3820 C   0  0  0  0  0  0  0  0  0  0  0  0
    5.1150    7.7610   -1.2200 N   0  0  0  0  0  0  0  0  0  0  0  0
    6.6960    6.5900    0.5090 B   0  0  0  0  0  0  0  0  0  0  0  0
    6.2670    8.5150   -1.1940 C   0  0  0  0  0  0  0  0  0  0  0  0
    7.2140    8.0240   -0.3280 C   0  0  0  0  0  0  0  0  0  0  0  0
    8.4780    8.6780   -0.1250 C   0  0  0  0  0  0  0  0  0  0  0  0
   10.0310    7.8650    0.1600 C   0  0  0  0  0  0  0  0  0  0  0  0
    8.6700   10.0370   -0.1350 C   0  0  0  0  0  0  0  0  0  0  0  0
   10.9030    9.4100    0.2600 C   0  0  0  0  0  0  0  0  0  0  0  0
    7.5200   11.3360   -0.2760 S   0  0  0  0  0  0  0  0  0  0  0  0
    9.9850   10.4060    0.0870 C   0  0  0  0  0  0  0  0  0  0  0  0
    8.9040   12.4550   -0.0740 C   0  0  0  0  0  0  0  0  0  0  0  0
   10.1260   11.8180    0.1130 C   0  0  0  0  0  0  0  0  0  0  0  0
   -1.1030   -0.5410    0.7770 H   0  0  0  0  0  0  0  0  0  0  0  0
    0.8100   -0.2190    2.3380 H   0  0  0  0  0  0  0  0  0  0  0  0
   -1.4940    1.0920   -1.0620 H   0  0  0  0  0  0  0  0  0  0  0  0
    2.3140    1.7300    2.0770 H   0  0  0  0  0  0  0  0  0  0  0  0
    0.0130    3.0340   -1.3420 H   0  0  0  0  0  0  0  0  0  0  0  0
    4.0120    2.5310    0.5650 H   0  0  0  0  0  0  0  0  0  0  0  0
    6.3460    9.3790   -1.8400 H   0  0  0  0  0  0  0  0  0  0  0  0
   11.9660    9.4610    0.4480 H   0  0  0  0  0  0  0  0  0  0  0  0
    8.7130   13.5200   -0.0980 H   0  0  0  0  0  0  0  0  0  0  0  0
   11.0710   12.3250    0.2700 H   0  0  0  0  0  0  0  0  0  0  0  0
  1 29  1  0  0  0  0
  1  2  2  0  0  0  0
  2 30  1  0  0  0  0
  3  1  1  0  0  0  0
  4  2  1  0  0  0  0
  4 32  1  0  0  0  0
  5  3  2  0  0  0  0
  5  6  1  0  0  0  0
  6  4  2  0  0  0  0
  7  8  2  0  0  0  0
  7  6  1  0  0  0  0
  8 34  1  0  0  0  0
  9  7  1  0  0  0  0
 10  8  1  0  0  0  0
 11  9  2  0  0  0  0
 12 13  1  0  0  0  0
 12  9  1  0  0  0  0
 13 10  2  0  0  0  0
 14 15  1  0  0  0  0
 14 11  1  0  0  0  0
 15 12  2  0  0  0  0
 16 13  1  0  0  0  0
 16 18  1  0  0  0  0
 17 19  1  0  0  0  0
 17 16  2  0  0  0  0
 19 20  1  0  0  0  0
 20 21  1  0  0  0  0
 20 18  2  0  0  0  0
 21 22  2  0  0  0  0
 22 24  1  0  0  0  0
 23 21  1  0  0  0  0
 23 26  1  0  0  0  0
 24 36  1  0  0  0  0
 25 23  2  0  0  0  0
 25 27  1  0  0  0  0
 26 28  1  0  0  0  0
 26 24  2  0  0  0  0
 27 28  2  0  0  0  0
 28 38  1  0  0  0  0
 31  3  1  0  0  0  0
 33  5  1  0  0  0  0
 35 19  1  0  0  0  0
 37 27  1  0  0  0  0
M  END
$$$$
scan_sander_basal_param/min_pdbs/min_pdb_C306_345.pdb
 OpenBabel10021702563D

 38 43  0  0  0  0  0  0  0  0999 V2000
   -0.3900    0.2860    0.7310 C   0  0  0  0  0  0  0  0  0  0  0  0
    0.6290    0.5580    1.6570 C   0  0  0  0  0  0  0  0  0  0  0  0
   -0.5750    1.1310   -0.3730 C   0  0  0  0  0  0  0  0  0  0  0  0
    1.4570    1.6780    1.4790 C   0  0  0  0  0  0  0  0  0  0  0  0
    0.2550    2.2510   -0.5470 C   0  0  0  0  0  0  0  0  0  0  0  0
    1.2780    2.5580    0.3840 C   0  0  0  0  0  0  0  0  0  0  0  0
    2.1980    3.7240    0.1920 C   0  0  0  0  0  0  0  0  0  0  0  0
    3.5880    3.5840    0.4160 C   0  0  0  0  0  0  0  0  0  0  0  0
    1.7800    4.9960   -0.2670 C   0  0  0  0  0  0  0  0  0  0  0  0
    4.4860    4.5720    0.2290 N   0  0  0  0  0  0  0  0  0  0  0  0
    0.4970    5.3310   -0.5160 N   0  0  0  0  0  0  0  0  0  0  0  0
    2.6980    6.0220   -0.4580 C   0  0  0  0  0  0  0  0  0  0  0  0
    4.0720    5.7870   -0.2030 C   0  0  0  0  0  0  0  0  0  0  0  0
    0.5460    6.8980   -0.9810 S   0  0  0  0  0  0  0  0  0  0  0  0
    2.1500    7.1880   -0.8680 N   0  0  0  0  0  0  0  0  0  0  0  0
    5.1300    6.7990   -0.3930 C   0  0  0  0  0  0  0  0  0  0  0  0
    4.9910    7.9300   -1.0750 N   0  0  0  0  0  0  0  0  0  0  0  0
    6.7260    6.5390    0.2990 B   0  0  0  0  0  0  0  0  0  0  0  0
    6.1520    8.6690   -1.0830 C   0  0  0  0  0  0  0  0  0  0  0  0
    7.1790    8.0660   -0.3990 C   0  0  0  0  0  0  0  0  0  0  0  0
    8.4700    8.6800   -0.2550 C   0  0  0  0  0  0  0  0  0  0  0  0
   10.0290    7.8290   -0.2530 C   0  0  0  0  0  0  0  0  0  0  0  0
    8.6870   10.0280   -0.1120 C   0  0  0  0  0  0  0  0  0  0  0  0
   10.9370    9.3440   -0.0530 C   0  0  0  0  0  0  0  0  0  0  0  0
    7.5540   11.3410    0.0450 S   0  0  0  0  0  0  0  0  0  0  0  0
   10.0260   10.3580    0.0070 C   0  0  0  0  0  0  0  0  0  0  0  0
    8.9740   12.4170    0.2330 C   0  0  0  0  0  0  0  0  0  0  0  0
   10.1960   11.7540    0.1990 C   0  0  0  0  0  0  0  0  0  0  0  0
   -1.0310   -0.5810    0.8660 H   0  0  0  0  0  0  0  0  0  0  0  0
    0.7760   -0.0990    2.5100 H   0  0  0  0  0  0  0  0  0  0  0  0
   -1.3570    0.9170   -1.0960 H   0  0  0  0  0  0  0  0  0  0  0  0
    2.2380    1.8760    2.2070 H   0  0  0  0  0  0  0  0  0  0  0  0
    0.1100    2.8830   -1.4170 H   0  0  0  0  0  0  0  0  0  0  0  0
    4.0000    2.6310    0.7460 H   0  0  0  0  0  0  0  0  0  0  0  0
    6.1750    9.6090   -1.6170 H   0  0  0  0  0  0  0  0  0  0  0  0
   12.0150    9.3640    0.0210 H   0  0  0  0  0  0  0  0  0  0  0  0
    8.8020   13.4770    0.3680 H   0  0  0  0  0  0  0  0  0  0  0  0
   11.1630   12.2310    0.3130 H   0  0  0  0  0  0  0  0  0  0  0  0
  1 29  1  0  0  0  0
  1  2  2  0  0  0  0
  2 30  1  0  0  0  0
  3  1  1  0  0  0  0
  4  2  1  0  0  0  0
  4 32  1  0  0  0  0
  5  3  2  0  0  0  0
  5  6  1  0  0  0  0
  6  4  2  0  0  0  0
  7  6  1  0  0  0  0
  7  8  2  0  0  0  0
  8 34  1  0  0  0  0
  9  7  1  0  0  0  0
 10  8  1  0  0  0  0
 11  9  2  0  0  0  0
 12  9  1  0  0  0  0
 12 13  1  0  0  0  0
 13 10  2  0  0  0  0
 14 15  1  0  0  0  0
 14 11  1  0  0  0  0
 15 12  2  0  0  0  0
 16 13  1  0  0  0  0
 16 18  1  0  0  0  0
 17 16  2  0  0  0  0
 19 17  1  0  0  0  0
 19 20  1  0  0  0  0
 20 21  1  0  0  0  0
 20 18  2  0  0  0  0
 21 22  2  0  0  0  0
 21 23  1  0  0  0  0
 22 24  1  0  0  0  0
 23 26  1  0  0  0  0
 23 25  2  0  0  0  0
 24 26  2  0  0  0  0
 24 36  1  0  0  0  0
 25 27  1  0  0  0  0
 26 28  1  0  0  0  0
 27 37  1  0  0  0  0
 28 27  2  0  0  0  0
 28 38  1  0  0  0  0
 31  3  1  0  0  0  0
 33  5  1  0  0  0  0
 35 19  1  0  0  0  0
M  END
$$$$
scan_sander_basal_param/min_pdbs/min_pdb_C306_360.pdb
 OpenBabel10021702563D

 38 43  0  0  0  0  0  0  0  0999 V2000
   -0.3480    0.2690    0.7920 C   0  0  0  0  0  0  0  0  0  0  0  0
    0.6030    0.6260    1.7590 C   0  0  0  0  0  0  0  0  0  0  0  0
   -0.4830    1.0370   -0.3740 C   0  0  0  0  0  0  0  0  0  0  0  0
    1.4150    1.7550    1.5610 C   0  0  0  0  0  0  0  0  0  0  0  0
    0.3300    2.1660   -0.5680 C   0  0  0  0  0  0  0  0  0  0  0  0
    1.2850    2.5600    0.4020 C   0  0  0  0  0  0  0  0  0  0  0  0
    2.1880    3.7360    0.1920 C   0  0  0  0  0  0  0  0  0  0  0  0
    3.5630    3.6490    0.5100 C   0  0  0  0  0  0  0  0  0  0  0  0
    1.7690    4.9650   -0.3720 C   0  0  0  0  0  0  0  0  0  0  0  0
    4.4470    4.6480    0.3170 N   0  0  0  0  0  0  0  0  0  0  0  0
    0.4990    5.2460   -0.7260 N   0  0  0  0  0  0  0  0  0  0  0  0
    2.6740    6.0030   -0.5710 C   0  0  0  0  0  0  0  0  0  0  0  0
    4.0350    5.8240   -0.2160 C   0  0  0  0  0  0  0  0  0  0  0  0
    0.5390    6.7790   -1.2940 S   0  0  0  0  0  0  0  0  0  0  0  0
    2.1260    7.1190   -1.1020 N   0  0  0  0  0  0  0  0  0  0  0  0
    5.0810    6.8520   -0.3890 C   0  0  0  0  0  0  0  0  0  0  0  0
    4.8850    8.0660   -0.8950 N   0  0  0  0  0  0  0  0  0  0  0  0
    6.7400    6.5080    0.0860 B   0  0  0  0  0  0  0  0  0  0  0  0
    6.0500    8.7990   -0.9360 C   0  0  0  0  0  0  0  0  0  0  0  0
    7.1360    8.1120   -0.4550 C   0  0  0  0  0  0  0  0  0  0  0  0
    8.4450    8.7020   -0.3790 C   0  0  0  0  0  0  0  0  0  0  0  0
    9.9810    7.8560   -0.6610 C   0  0  0  0  0  0  0  0  0  0  0  0
    8.6970   10.0190   -0.0880 C   0  0  0  0  0  0  0  0  0  0  0  0
   10.9290    9.3310   -0.3700 C   0  0  0  0  0  0  0  0  0  0  0  0
    7.6090   11.3010    0.3630 S   0  0  0  0  0  0  0  0  0  0  0  0
   10.0450   10.3300   -0.0780 C   0  0  0  0  0  0  0  0  0  0  0  0
    9.0570   12.3430    0.5280 C   0  0  0  0  0  0  0  0  0  0  0  0
   10.2570   11.6890    0.2720 C   0  0  0  0  0  0  0  0  0  0  0  0
   -0.9760   -0.6050    0.9430 H   0  0  0  0  0  0  0  0  0  0  0  0
    0.7120    0.0290    2.6600 H   0  0  0  0  0  0  0  0  0  0  0  0
   -1.2120    0.7570   -1.1290 H   0  0  0  0  0  0  0  0  0  0  0  0
    2.1430    2.0210    2.3210 H   0  0  0  0  0  0  0  0  0  0  0  0
    0.2250    2.7380   -1.4850 H   0  0  0  0  0  0  0  0  0  0  0  0
    3.9750    2.7290    0.9260 H   0  0  0  0  0  0  0  0  0  0  0  0
    6.0270    9.8020   -1.3420 H   0  0  0  0  0  0  0  0  0  0  0  0
   12.0090    9.3410   -0.4160 H   0  0  0  0  0  0  0  0  0  0  0  0
    8.9180   13.3760    0.8170 H   0  0  0  0  0  0  0  0  0  0  0  0
   11.2380   12.1460    0.3370 H   0  0  0  0  0  0  0  0  0  0  0  0
  1 29  1  0  0  0  0
  1  2  2  0  0  0  0
  2 30  1  0  0  0  0
  3  1  1  0  0  0  0
  4  2  1  0  0  0  0
  4 32  1  0  0  0  0
  5  3  2  0  0  0  0
  5  6  1  0  0  0  0
  6  4  2  0  0  0  0
  7  6  1  0  0  0  0
  7  8  2  0  0  0  0
  8 34  1  0  0  0  0
  9  7  1  0  0  0  0
 10  8  1  0  0  0  0
 11  9  2  0  0  0  0
 12  9  1  0  0  0  0
 12 13  1  0  0  0  0
 13 10  2  0  0  0  0
 14 15  1  0  0  0  0
 14 11  1  0  0  0  0
 15 12  2  0  0  0  0
 16 13  1  0  0  0  0
 16 18  1  0  0  0  0
 17 16  2  0  0  0  0
 19 17  1  0  0  0  0
 19 20  1  0  0  0  0
 20 21  1  0  0  0  0
 20 18  2  0  0  0  0
 21 23  1  0  0  0  0
 22 21  2  0  0  0  0
 22 24  1  0  0  0  0
 23 26  1  0  0  0  0
 23 25  2  0  0  0  0
 24 26  2  0  0  0  0
 25 27  1  0  0  0  0
 26 28  1  0  0  0  0
 27 37  1  0  0  0  0
 28 38  1  0  0  0  0
 28 27  2  0  0  0  0
 31  3  1  0  0  0  0
 33  5  1  0  0  0  0
 35 19  1  0  0  0  0
 36 24  1  0  0  0  0
M  END
$$$$
