scan_sander_basal/min_pdbs/min_pdb_C169_000.pdb
 OpenBabel09051718453D

 39 44  0  0  1  0  0  0  0  0999 V2000
    0.1420    0.0280    0.4670 C   0  0  0  0  0  0  0  0  0  0  0  0
    1.4670    0.1540    0.9030 C   0  0  0  0  0  0  0  0  0  0  0  0
   -0.5180    1.1660   -0.0180 C   0  0  0  0  0  0  0  0  0  0  0  0
    2.0720    1.4170    0.8350 C   0  0  0  0  0  0  0  0  0  0  0  0
    0.0710    2.3740   -0.0810 N   0  0  0  0  0  0  0  0  0  0  0  0
    1.3480    2.5330    0.3350 C   0  0  0  0  0  0  0  0  0  0  0  0
    1.9770    3.9060    0.2400 C   0  0  0  0  0  0  0  0  0  0  0  0
    3.3270    3.9360    0.2090 N   0  0  0  0  0  0  0  0  0  0  0  0
    1.2640    5.1360    0.2050 C   0  0  0  0  0  0  0  0  0  0  0  0
    3.9910    5.1050    0.1250 C   0  0  0  0  0  0  0  0  0  0  0  0
   -0.0800    5.2590    0.2860 N   0  0  0  0  0  0  0  0  0  0  0  0
    1.9520    6.3460    0.1110 C   0  0  0  0  0  0  0  0  0  0  0  0
    3.3720    6.3740    0.0570 C   0  0  0  0  0  0  0  0  0  0  0  0
   -0.3830    6.8600    0.2220 S   0  0  0  0  0  0  0  0  0  0  0  0
    1.1440    7.4300    0.1110 N   0  0  0  0  0  0  0  0  0  0  0  0
    4.1800    7.6270   -0.0320 C   0  0  1  0  0  0  0  0  0  0  0  0
    3.4420    9.2060   -0.4050 B   0  0  0  0  0  0  0  0  0  0  0  0
    5.6290    7.7720    0.1750 C   0  0  0  0  0  0  0  0  0  0  0  0
    5.0360    9.9520   -0.5070 C   0  0  0  0  0  0  0  0  0  0  0  0
    6.4380    6.8130    0.6720 N   0  0  0  0  0  0  0  0  0  0  0  0
    6.1100    9.0550   -0.1100 C   0  0  0  0  0  0  0  0  0  0  0  0
    5.2970   11.2950   -0.9770 C   0  0  0  0  0  0  0  0  0  0  0  0
    7.7350    7.1460    0.8390 C   0  0  0  0  0  0  0  0  0  0  0  0
    7.4020    9.4050    0.0680 N   0  0  0  0  0  0  0  0  0  0  0  0
    4.2460   12.0830   -1.3840 C   0  0  0  0  0  0  0  0  0  0  0  0
    6.8440   12.1220   -1.1730 S   0  0  0  0  0  0  0  0  0  0  0  0
    8.2160    8.4350    0.5330 C   0  0  0  0  0  0  0  0  0  0  0  0
    4.6640   13.3660   -1.8450 C   0  0  0  0  0  0  0  0  0  0  0  0
    6.0230   13.5490   -1.7960 C   0  0  0  0  0  0  0  0  0  0  0  0
   -0.3660   -0.9310    0.5010 H   0  0  0  0  0  0  0  0  0  0  0  0
    2.0120   -0.7050    1.2850 H   0  0  0  0  0  0  0  0  0  0  0  0
   -1.5490    1.1100   -0.3680 H   0  0  0  0  0  0  0  0  0  0  0  0
    3.0970    1.5360    1.1710 H   0  0  0  0  0  0  0  0  0  0  0  0
    5.0660    4.9830    0.0570 H   0  0  0  0  0  0  0  0  0  0  0  0
    8.3960    6.3730    1.2290 H   0  0  0  0  0  0  0  0  0  0  0  0
    3.2050   11.7870   -1.3660 H   0  0  0  0  0  0  0  0  0  0  0  0
    9.2630    8.6970    0.6760 H   0  0  0  0  0  0  0  0  0  0  0  0
    3.9680   14.1190   -2.2020 H   0  0  0  0  0  0  0  0  0  0  0  0
    6.6000   14.4180   -2.0840 H   0  0  0  0  0  0  0  0  0  0  0  0
  1 30  1  0  0  0  0
  1  2  2  0  0  0  0
  2 31  1  0  0  0  0
  3  1  1  0  0  0  0
  4  2  1  0  0  0  0
  4 33  1  0  0  0  0
  5  3  2  0  0  0  0
  5  6  1  0  0  0  0
  6  4  2  0  0  0  0
  7  6  1  0  0  0  0
  8  7  2  0  0  0  0
  9  7  1  0  0  0  0
  9 11  2  0  0  0  0
 10  8  1  0  0  0  0
 12 15  2  0  0  0  0
 12  9  1  0  0  0  0
 13 12  1  0  0  0  0
 13 10  2  0  0  0  0
 14 11  1  0  0  0  0
 15 14  1  0  0  0  0
 16 13  1  1  0  0  0
 16 18  1  0  0  0  0
 17 16  1  0  0  0  0
 18 20  2  0  0  0  0
 19 17  2  0  0  0  0
 19 21  1  0  0  0  0
 20 23  1  0  0  0  0
 21 24  2  0  0  0  0
 21 18  1  0  0  0  0
 22 19  1  0  0  0  0
 23 35  1  0  0  0  0
 24 27  1  0  0  0  0
 25 36  1  0  0  0  0
 25 22  2  0  0  0  0
 26 22  1  0  0  0  0
 27 37  1  0  0  0  0
 27 23  2  0  0  0  0
 28 29  2  0  0  0  0
 28 25  1  0  0  0  0
 29 26  1  0  0  0  0
 32  3  1  0  0  0  0
 34 10  1  0  0  0  0
 38 28  1  0  0  0  0
 39 29  1  0  0  0  0
M  END
$$$$
scan_sander_basal/min_pdbs/min_pdb_C169_015.pdb
 OpenBabel09051718453D

 39 44  0  0  1  0  0  0  0  0999 V2000
    0.1570    0.0180    0.4510 C   0  0  0  0  0  0  0  0  0  0  0  0
    1.4790    0.1510    0.8940 C   0  0  0  0  0  0  0  0  0  0  0  0
   -0.5050    1.1530   -0.0390 C   0  0  0  0  0  0  0  0  0  0  0  0
    2.0800    1.4160    0.8260 C   0  0  0  0  0  0  0  0  0  0  0  0
    0.0800    2.3630   -0.1010 N   0  0  0  0  0  0  0  0  0  0  0  0
    1.3540    2.5280    0.3200 C   0  0  0  0  0  0  0  0  0  0  0  0
    1.9790    3.9030    0.2270 C   0  0  0  0  0  0  0  0  0  0  0  0
    3.3290    3.9380    0.2020 N   0  0  0  0  0  0  0  0  0  0  0  0
    1.2610    5.1300    0.1860 C   0  0  0  0  0  0  0  0  0  0  0  0
    3.9890    5.1090    0.1210 C   0  0  0  0  0  0  0  0  0  0  0  0
   -0.0840    5.2480    0.2580 N   0  0  0  0  0  0  0  0  0  0  0  0
    1.9450    6.3430    0.0960 C   0  0  0  0  0  0  0  0  0  0  0  0
    3.3650    6.3760    0.0500 C   0  0  0  0  0  0  0  0  0  0  0  0
   -0.3920    6.8480    0.1920 S   0  0  0  0  0  0  0  0  0  0  0  0
    1.1330    7.4240    0.0900 N   0  0  0  0  0  0  0  0  0  0  0  0
    4.1690    7.6320   -0.0320 C   0  0  1  0  0  0  0  0  0  0  0  0
    3.4290    9.2110   -0.4080 B   0  0  0  0  0  0  0  0  0  0  0  0
    5.6170    7.7790    0.1850 C   0  0  0  0  0  0  0  0  0  0  0  0
    5.0220    9.9540   -0.5000 C   0  0  0  0  0  0  0  0  0  0  0  0
    6.4240    6.8260    0.6990 N   0  0  0  0  0  0  0  0  0  0  0  0
    6.0960    9.0620   -0.0980 C   0  0  0  0  0  0  0  0  0  0  0  0
    5.2980   11.2760   -1.0110 C   0  0  0  0  0  0  0  0  0  0  0  0
    7.7160    7.1700    0.8860 C   0  0  0  0  0  0  0  0  0  0  0  0
    7.3800    9.4270    0.1080 N   0  0  0  0  0  0  0  0  0  0  0  0
    4.2630   12.1630   -1.1820 C   0  0  0  0  0  0  0  0  0  0  0  0
    6.8300   11.9320   -1.5870 S   0  0  0  0  0  0  0  0  0  0  0  0
    8.1920    8.4630    0.5880 C   0  0  0  0  0  0  0  0  0  0  0  0
    4.6870   13.3990   -1.7510 C   0  0  0  0  0  0  0  0  0  0  0  0
    6.0330   13.4420   -2.0240 C   0  0  0  0  0  0  0  0  0  0  0  0
   -0.3470   -0.9420    0.4850 H   0  0  0  0  0  0  0  0  0  0  0  0
    2.0260   -0.7060    1.2800 H   0  0  0  0  0  0  0  0  0  0  0  0
   -1.5330    1.0930   -0.3940 H   0  0  0  0  0  0  0  0  0  0  0  0
    3.1030    1.5390    1.1670 H   0  0  0  0  0  0  0  0  0  0  0  0
    5.0650    4.9920    0.0580 H   0  0  0  0  0  0  0  0  0  0  0  0
    8.3760    6.4030    1.2880 H   0  0  0  0  0  0  0  0  0  0  0  0
    3.2310   11.9690   -0.9140 H   0  0  0  0  0  0  0  0  0  0  0  0
    9.2340    8.7340    0.7520 H   0  0  0  0  0  0  0  0  0  0  0  0
    4.0080   14.2210   -1.9500 H   0  0  0  0  0  0  0  0  0  0  0  0
    6.6110   14.2490   -2.4540 H   0  0  0  0  0  0  0  0  0  0  0  0
  1 30  1  0  0  0  0
  1  2  2  0  0  0  0
  2 31  1  0  0  0  0
  3  1  1  0  0  0  0
  4  2  1  0  0  0  0
  4 33  1  0  0  0  0
  5  3  2  0  0  0  0
  5  6  1  0  0  0  0
  6  4  2  0  0  0  0
  7  6  1  0  0  0  0
  8  7  2  0  0  0  0
  9  7  1  0  0  0  0
  9 11  2  0  0  0  0
 10  8  1  0  0  0  0
 12  9  1  0  0  0  0
 13 12  1  0  0  0  0
 13 10  2  0  0  0  0
 14 11  1  0  0  0  0
 15 12  2  0  0  0  0
 15 14  1  0  0  0  0
 16 13  1  1  0  0  0
 16 18  1  0  0  0  0
 17 16  1  0  0  0  0
 18 20  2  0  0  0  0
 19 17  2  0  0  0  0
 19 21  1  0  0  0  0
 20 23  1  0  0  0  0
 21 24  2  0  0  0  0
 21 18  1  0  0  0  0
 22 19  1  0  0  0  0
 23 35  1  0  0  0  0
 24 27  1  0  0  0  0
 25 22  2  0  0  0  0
 25 36  1  0  0  0  0
 26 22  1  0  0  0  0
 27 37  1  0  0  0  0
 27 23  2  0  0  0  0
 28 25  1  0  0  0  0
 29 28  2  0  0  0  0
 29 26  1  0  0  0  0
 32  3  1  0  0  0  0
 34 10  1  0  0  0  0
 38 28  1  0  0  0  0
 39 29  1  0  0  0  0
M  END
$$$$
scan_sander_basal/min_pdbs/min_pdb_C169_030.pdb
 OpenBabel09051718453D

 39 44  0  0  1  0  0  0  0  0999 V2000
    0.1670    0.0020    0.5050 C   0  0  0  0  0  0  0  0  0  0  0  0
    1.4790    0.1540    0.9720 C   0  0  0  0  0  0  0  0  0  0  0  0
   -0.4890    1.1190   -0.0320 C   0  0  0  0  0  0  0  0  0  0  0  0
    2.0760    1.4190    0.8810 C   0  0  0  0  0  0  0  0  0  0  0  0
    0.0920    2.3300   -0.1170 N   0  0  0  0  0  0  0  0  0  0  0  0
    1.3560    2.5130    0.3270 C   0  0  0  0  0  0  0  0  0  0  0  0
    1.9770    3.8880    0.2080 C   0  0  0  0  0  0  0  0  0  0  0  0
    3.3270    3.9290    0.2110 N   0  0  0  0  0  0  0  0  0  0  0  0
    1.2550    5.1100    0.1170 C   0  0  0  0  0  0  0  0  0  0  0  0
    3.9840    5.1010    0.1130 C   0  0  0  0  0  0  0  0  0  0  0  0
   -0.0920    5.2230    0.1550 N   0  0  0  0  0  0  0  0  0  0  0  0
    1.9350    6.3230    0.0090 C   0  0  0  0  0  0  0  0  0  0  0  0
    3.3560    6.3630   -0.0050 C   0  0  0  0  0  0  0  0  0  0  0  0
   -0.4060    6.8190    0.0380 S   0  0  0  0  0  0  0  0  0  0  0  0
    1.1190    7.3990   -0.0440 N   0  0  0  0  0  0  0  0  0  0  0  0
    4.1560    7.6200   -0.1010 C   0  0  1  0  0  0  0  0  0  0  0  0
    3.4140    9.1860   -0.5360 B   0  0  0  0  0  0  0  0  0  0  0  0
    5.6000    7.7800    0.1450 C   0  0  0  0  0  0  0  0  0  0  0  0
    5.0030    9.9390   -0.5710 C   0  0  0  0  0  0  0  0  0  0  0  0
    6.4070    6.8390    0.6790 N   0  0  0  0  0  0  0  0  0  0  0  0
    6.0740    9.0630   -0.1400 C   0  0  0  0  0  0  0  0  0  0  0  0
    5.2920   11.2590   -1.0640 C   0  0  0  0  0  0  0  0  0  0  0  0
    7.6930    7.1990    0.8850 C   0  0  0  0  0  0  0  0  0  0  0  0
    7.3490    9.4460    0.0790 N   0  0  0  0  0  0  0  0  0  0  0  0
    4.3340   12.2380   -0.9780 C   0  0  0  0  0  0  0  0  0  0  0  0
    6.7380   11.8060   -1.9080 S   0  0  0  0  0  0  0  0  0  0  0  0
    8.1620    8.4940    0.5830 C   0  0  0  0  0  0  0  0  0  0  0  0
    4.7580   13.4650   -1.5660 C   0  0  0  0  0  0  0  0  0  0  0  0
    6.0210   13.4040   -2.1050 C   0  0  0  0  0  0  0  0  0  0  0  0
   -0.3340   -0.9590    0.5570 H   0  0  0  0  0  0  0  0  0  0  0  0
    2.0210   -0.6880    1.3950 H   0  0  0  0  0  0  0  0  0  0  0  0
   -1.5090    1.0440   -0.4070 H   0  0  0  0  0  0  0  0  0  0  0  0
    3.0910    1.5570    1.2390 H   0  0  0  0  0  0  0  0  0  0  0  0
    5.0610    4.9870    0.0780 H   0  0  0  0  0  0  0  0  0  0  0  0
    8.3540    6.4420    1.3050 H   0  0  0  0  0  0  0  0  0  0  0  0
    3.3640   12.1110   -0.5110 H   0  0  0  0  0  0  0  0  0  0  0  0
    9.1990    8.7750    0.7610 H   0  0  0  0  0  0  0  0  0  0  0  0
    4.1380   14.3560   -1.5850 H   0  0  0  0  0  0  0  0  0  0  0  0
    6.5800   14.1840   -2.6070 H   0  0  0  0  0  0  0  0  0  0  0  0
  1 30  1  0  0  0  0
  1  2  2  0  0  0  0
  2 31  1  0  0  0  0
  3  1  1  0  0  0  0
  4  2  1  0  0  0  0
  4 33  1  0  0  0  0
  5  3  2  0  0  0  0
  5  6  1  0  0  0  0
  6  4  2  0  0  0  0
  7  8  2  0  0  0  0
  7  6  1  0  0  0  0
  9 11  2  0  0  0  0
  9  7  1  0  0  0  0
 10  8  1  0  0  0  0
 12  9  1  0  0  0  0
 13 12  1  0  0  0  0
 13 10  2  0  0  0  0
 14 11  1  0  0  0  0
 15 12  2  0  0  0  0
 15 14  1  0  0  0  0
 16 13  1  1  0  0  0
 16 18  1  0  0  0  0
 17 16  1  0  0  0  0
 18 20  2  0  0  0  0
 19 17  2  0  0  0  0
 19 21  1  0  0  0  0
 20 23  1  0  0  0  0
 21 24  2  0  0  0  0
 21 18  1  0  0  0  0
 22 25  2  0  0  0  0
 22 19  1  0  0  0  0
 23 35  1  0  0  0  0
 24 27  1  0  0  0  0
 25 36  1  0  0  0  0
 26 22  1  0  0  0  0
 27 37  1  0  0  0  0
 27 23  2  0  0  0  0
 28 25  1  0  0  0  0
 29 26  1  0  0  0  0
 29 28  2  0  0  0  0
 32  3  1  0  0  0  0
 34 10  1  0  0  0  0
 38 28  1  0  0  0  0
 39 29  1  0  0  0  0
M  END
$$$$
scan_sander_basal/min_pdbs/min_pdb_C169_045.pdb
 OpenBabel09051718453D

 39 44  0  0  1  0  0  0  0  0999 V2000
    0.1810   -0.0160    0.5460 C   0  0  0  0  0  0  0  0  0  0  0  0
    1.4800    0.1550    1.0400 C   0  0  0  0  0  0  0  0  0  0  0  0
   -0.4700    1.0840   -0.0320 C   0  0  0  0  0  0  0  0  0  0  0  0
    2.0700    1.4230    0.9340 C   0  0  0  0  0  0  0  0  0  0  0  0
    0.1050    2.2960   -0.1310 N   0  0  0  0  0  0  0  0  0  0  0  0
    1.3570    2.4980    0.3380 C   0  0  0  0  0  0  0  0  0  0  0  0
    1.9710    3.8750    0.2020 C   0  0  0  0  0  0  0  0  0  0  0  0
    3.3210    3.9240    0.2350 N   0  0  0  0  0  0  0  0  0  0  0  0
    1.2440    5.0890    0.0650 C   0  0  0  0  0  0  0  0  0  0  0  0
    3.9720    5.0980    0.1230 C   0  0  0  0  0  0  0  0  0  0  0  0
   -0.1040    5.1930    0.0710 N   0  0  0  0  0  0  0  0  0  0  0  0
    1.9190    6.3030   -0.0590 C   0  0  0  0  0  0  0  0  0  0  0  0
    3.3400    6.3520   -0.0440 C   0  0  0  0  0  0  0  0  0  0  0  0
   -0.4250    6.7830   -0.0920 S   0  0  0  0  0  0  0  0  0  0  0  0
    1.0980    7.3720   -0.1570 N   0  0  0  0  0  0  0  0  0  0  0  0
    4.1340    7.6120   -0.1580 C   0  0  1  0  0  0  0  0  0  0  0  0
    3.3890    9.1610   -0.6520 B   0  0  0  0  0  0  0  0  0  0  0  0
    5.5720    7.7880    0.1150 C   0  0  0  0  0  0  0  0  0  0  0  0
    4.9710    9.9230   -0.6540 C   0  0  0  0  0  0  0  0  0  0  0  0
    6.3830    6.8640    0.6740 N   0  0  0  0  0  0  0  0  0  0  0  0
    6.0400    9.0690   -0.1860 C   0  0  0  0  0  0  0  0  0  0  0  0
    5.2710   11.2420   -1.1310 C   0  0  0  0  0  0  0  0  0  0  0  0
    7.6630    7.2400    0.8850 C   0  0  0  0  0  0  0  0  0  0  0  0
    7.3100    9.4690    0.0310 N   0  0  0  0  0  0  0  0  0  0  0  0
    4.4540   12.2890   -0.7920 C   0  0  0  0  0  0  0  0  0  0  0  0
    6.5700   11.7090   -2.2210 S   0  0  0  0  0  0  0  0  0  0  0  0
    8.1250    8.5330    0.5610 C   0  0  0  0  0  0  0  0  0  0  0  0
    4.8740   13.5110   -1.3940 C   0  0  0  0  0  0  0  0  0  0  0  0
    5.9890   13.3740   -2.1870 C   0  0  0  0  0  0  0  0  0  0  0  0
   -0.3150   -0.9800    0.6070 H   0  0  0  0  0  0  0  0  0  0  0  0
    2.0180   -0.6730    1.4940 H   0  0  0  0  0  0  0  0  0  0  0  0
   -1.4800    0.9920   -0.4290 H   0  0  0  0  0  0  0  0  0  0  0  0
    3.0760    1.5760    1.3130 H   0  0  0  0  0  0  0  0  0  0  0  0
    5.0500    4.9900    0.1160 H   0  0  0  0  0  0  0  0  0  0  0  0
    8.3270    6.4970    1.3260 H   0  0  0  0  0  0  0  0  0  0  0  0
    3.5930   12.2090   -0.1390 H   0  0  0  0  0  0  0  0  0  0  0  0
    9.1590    8.8260    0.7420 H   0  0  0  0  0  0  0  0  0  0  0  0
    4.3570   14.4530   -1.2390 H   0  0  0  0  0  0  0  0  0  0  0  0
    6.5110   14.1340   -2.7540 H   0  0  0  0  0  0  0  0  0  0  0  0
  1 30  1  0  0  0  0
  1  2  2  0  0  0  0
  2 31  1  0  0  0  0
  3  1  1  0  0  0  0
  4  2  1  0  0  0  0
  4 33  1  0  0  0  0
  5  3  2  0  0  0  0
  5  6  1  0  0  0  0
  6  4  2  0  0  0  0
  7  8  2  0  0  0  0
  7  6  1  0  0  0  0
  9 11  2  0  0  0  0
  9  7  1  0  0  0  0
 10  8  1  0  0  0  0
 12 13  1  0  0  0  0
 12  9  1  0  0  0  0
 13 10  2  0  0  0  0
 14 11  1  0  0  0  0
 15 14  1  0  0  0  0
 15 12  2  0  0  0  0
 16 13  1  1  0  0  0
 16 18  1  0  0  0  0
 17 16  1  0  0  0  0
 18 20  2  0  0  0  0
 19 17  2  0  0  0  0
 19 21  1  0  0  0  0
 20 23  1  0  0  0  0
 21 24  2  0  0  0  0
 21 18  1  0  0  0  0
 22 25  2  0  0  0  0
 22 19  1  0  0  0  0
 23 35  1  0  0  0  0
 24 27  1  0  0  0  0
 25 36  1  0  0  0  0
 26 29  1  0  0  0  0
 26 22  1  0  0  0  0
 27 37  1  0  0  0  0
 27 23  2  0  0  0  0
 28 38  1  0  0  0  0
 28 25  1  0  0  0  0
 29 28  2  0  0  0  0
 32  3  1  0  0  0  0
 34 10  1  0  0  0  0
 39 29  1  0  0  0  0
M  END
$$$$
scan_sander_basal/min_pdbs/min_pdb_C169_060.pdb
 OpenBabel09051718453D

 39 44  0  0  1  0  0  0  0  0999 V2000
    0.1950   -0.0330    0.6160 C   0  0  0  0  0  0  0  0  0  0  0  0
    1.4810    0.1640    1.1350 C   0  0  0  0  0  0  0  0  0  0  0  0
   -0.4500    1.0420   -0.0110 C   0  0  0  0  0  0  0  0  0  0  0  0
    2.0650    1.4320    1.0020 C   0  0  0  0  0  0  0  0  0  0  0  0
    0.1190    2.2550   -0.1350 N   0  0  0  0  0  0  0  0  0  0  0  0
    1.3580    2.4830    0.3560 C   0  0  0  0  0  0  0  0  0  0  0  0
    1.9650    3.8590    0.1900 C   0  0  0  0  0  0  0  0  0  0  0  0
    3.3130    3.9200    0.2540 N   0  0  0  0  0  0  0  0  0  0  0  0
    1.2330    5.0620   -0.0020 C   0  0  0  0  0  0  0  0  0  0  0  0
    3.9590    5.0950    0.1190 C   0  0  0  0  0  0  0  0  0  0  0  0
   -0.1160    5.1560   -0.0300 N   0  0  0  0  0  0  0  0  0  0  0  0
    1.9020    6.2770   -0.1480 C   0  0  0  0  0  0  0  0  0  0  0  0
    3.3210    6.3380   -0.1020 C   0  0  0  0  0  0  0  0  0  0  0  0
   -0.4450    6.7370   -0.2520 S   0  0  0  0  0  0  0  0  0  0  0  0
    1.0750    7.3350   -0.2990 N   0  0  0  0  0  0  0  0  0  0  0  0
    4.1080    7.6010   -0.2370 C   0  0  1  0  0  0  0  0  0  0  0  0
    3.3620    9.1270   -0.7980 B   0  0  0  0  0  0  0  0  0  0  0  0
    5.5390    7.7970    0.0640 C   0  0  0  0  0  0  0  0  0  0  0  0
    4.9350    9.9040   -0.7660 C   0  0  0  0  0  0  0  0  0  0  0  0
    6.3520    6.8930    0.6510 N   0  0  0  0  0  0  0  0  0  0  0  0
    6.0000    9.0760   -0.2540 C   0  0  0  0  0  0  0  0  0  0  0  0
    5.2340   11.2330   -1.2070 C   0  0  0  0  0  0  0  0  0  0  0  0
    7.6250    7.2860    0.8720 C   0  0  0  0  0  0  0  0  0  0  0  0
    7.2640    9.4930   -0.0360 N   0  0  0  0  0  0  0  0  0  0  0  0
    4.6110   12.3030   -0.6220 C   0  0  0  0  0  0  0  0  0  0  0  0
    6.3420   11.6910   -2.4900 S   0  0  0  0  0  0  0  0  0  0  0  0
    8.0800    8.5760    0.5260 C   0  0  0  0  0  0  0  0  0  0  0  0
    5.0200   13.5380   -1.2030 C   0  0  0  0  0  0  0  0  0  0  0  0
    5.9390   13.3870   -2.2160 C   0  0  0  0  0  0  0  0  0  0  0  0
   -0.2950   -0.9990    0.6970 H   0  0  0  0  0  0  0  0  0  0  0  0
    2.0140   -0.6460    1.6280 H   0  0  0  0  0  0  0  0  0  0  0  0
   -1.4500    0.9310   -0.4280 H   0  0  0  0  0  0  0  0  0  0  0  0
    3.0600    1.6050    1.4000 H   0  0  0  0  0  0  0  0  0  0  0  0
    5.0370    4.9950    0.1420 H   0  0  0  0  0  0  0  0  0  0  0  0
    8.2900    6.5590    1.3370 H   0  0  0  0  0  0  0  0  0  0  0  0
    3.8950   12.2280    0.1890 H   0  0  0  0  0  0  0  0  0  0  0  0
    9.1090    8.8820    0.7130 H   0  0  0  0  0  0  0  0  0  0  0  0
    4.6410   14.5000   -0.8730 H   0  0  0  0  0  0  0  0  0  0  0  0
    6.4110   14.1520   -2.8180 H   0  0  0  0  0  0  0  0  0  0  0  0
  1 30  1  0  0  0  0
  1  2  2  0  0  0  0
  2 31  1  0  0  0  0
  3  1  1  0  0  0  0
  4  2  1  0  0  0  0
  4 33  1  0  0  0  0
  5  3  2  0  0  0  0
  5  6  1  0  0  0  0
  6  4  2  0  0  0  0
  7  8  2  0  0  0  0
  7  6  1  0  0  0  0
  9  7  1  0  0  0  0
 10 34  1  0  0  0  0
 10  8  1  0  0  0  0
 11  9  2  0  0  0  0
 12 13  1  0  0  0  0
 12  9  1  0  0  0  0
 13 10  2  0  0  0  0
 14 11  1  0  0  0  0
 15 14  1  0  0  0  0
 15 12  2  0  0  0  0
 16 13  1  1  0  0  0
 16 18  1  0  0  0  0
 17 19  2  0  0  0  0
 17 16  1  0  0  0  0
 18 20  2  0  0  0  0
 19 21  1  0  0  0  0
 20 23  1  0  0  0  0
 21 24  2  0  0  0  0
 21 18  1  0  0  0  0
 22 19  1  0  0  0  0
 22 25  2  0  0  0  0
 23 35  1  0  0  0  0
 24 27  1  0  0  0  0
 25 36  1  0  0  0  0
 26 29  1  0  0  0  0
 26 22  1  0  0  0  0
 27 37  1  0  0  0  0
 27 23  2  0  0  0  0
 28 38  1  0  0  0  0
 28 25  1  0  0  0  0
 29 28  2  0  0  0  0
 32  3  1  0  0  0  0
 39 29  1  0  0  0  0
M  END
$$$$
scan_sander_basal/min_pdbs/min_pdb_C169_075.pdb
 OpenBabel09051718453D

 39 44  0  0  1  0  0  0  0  0999 V2000
    0.2130   -0.0490    0.6720 C   0  0  0  0  0  0  0  0  0  0  0  0
    1.4880    0.1720    1.2080 C   0  0  0  0  0  0  0  0  0  0  0  0
   -0.4280    1.0060    0.0070 C   0  0  0  0  0  0  0  0  0  0  0  0
    2.0640    1.4410    1.0540 C   0  0  0  0  0  0  0  0  0  0  0  0
    0.1330    2.2200   -0.1380 N   0  0  0  0  0  0  0  0  0  0  0  0
    1.3610    2.4690    0.3700 C   0  0  0  0  0  0  0  0  0  0  0  0
    1.9610    3.8460    0.1810 C   0  0  0  0  0  0  0  0  0  0  0  0
    3.3070    3.9200    0.2670 N   0  0  0  0  0  0  0  0  0  0  0  0
    1.2230    5.0380   -0.0550 C   0  0  0  0  0  0  0  0  0  0  0  0
    3.9460    5.0960    0.1150 C   0  0  0  0  0  0  0  0  0  0  0  0
   -0.1250    5.1200   -0.1100 N   0  0  0  0  0  0  0  0  0  0  0  0
    1.8850    6.2550   -0.2180 C   0  0  0  0  0  0  0  0  0  0  0  0
    3.3030    6.3290   -0.1460 C   0  0  0  0  0  0  0  0  0  0  0  0
   -0.4630    6.6930   -0.3760 S   0  0  0  0  0  0  0  0  0  0  0  0
    1.0530    7.3020   -0.4090 N   0  0  0  0  0  0  0  0  0  0  0  0
    4.0820    7.5950   -0.2950 C   0  0  1  0  0  0  0  0  0  0  0  0
    3.3340    9.1020   -0.9050 B   0  0  0  0  0  0  0  0  0  0  0  0
    5.5060    7.8100    0.0280 C   0  0  0  0  0  0  0  0  0  0  0  0
    4.8960    9.8960   -0.8470 C   0  0  0  0  0  0  0  0  0  0  0  0
    6.3190    6.9220    0.6390 N   0  0  0  0  0  0  0  0  0  0  0  0
    5.9590    9.0880   -0.3020 C   0  0  0  0  0  0  0  0  0  0  0  0
    5.1870   11.2330   -1.2640 C   0  0  0  0  0  0  0  0  0  0  0  0
    7.5860    7.3320    0.8710 C   0  0  0  0  0  0  0  0  0  0  0  0
    7.2170    9.5220   -0.0760 N   0  0  0  0  0  0  0  0  0  0  0  0
    4.7990   12.2920   -0.4880 C   0  0  0  0  0  0  0  0  0  0  0  0
    6.0430   11.7120   -2.7200 S   0  0  0  0  0  0  0  0  0  0  0  0
    8.0340    8.6210    0.5100 C   0  0  0  0  0  0  0  0  0  0  0  0
    5.1800   13.5380   -1.0640 C   0  0  0  0  0  0  0  0  0  0  0  0
    5.8480   13.4050   -2.2600 C   0  0  0  0  0  0  0  0  0  0  0  0
   -0.2710   -1.0150    0.7680 H   0  0  0  0  0  0  0  0  0  0  0  0
    2.0180   -0.6210    1.7310 H   0  0  0  0  0  0  0  0  0  0  0  0
   -1.4200    0.8760   -0.4250 H   0  0  0  0  0  0  0  0  0  0  0  0
    3.0510    1.6320    1.4650 H   0  0  0  0  0  0  0  0  0  0  0  0
    5.0240    5.0050    0.1600 H   0  0  0  0  0  0  0  0  0  0  0  0
    8.2520    6.6190    1.3550 H   0  0  0  0  0  0  0  0  0  0  0  0
    4.2700   12.1990    0.4540 H   0  0  0  0  0  0  0  0  0  0  0  0
    9.0570    8.9390    0.7050 H   0  0  0  0  0  0  0  0  0  0  0  0
    4.9620   14.4950   -0.5990 H   0  0  0  0  0  0  0  0  0  0  0  0
    6.2460   14.1820   -2.9000 H   0  0  0  0  0  0  0  0  0  0  0  0
  1 30  1  0  0  0  0
  1  2  2  0  0  0  0
  2 31  1  0  0  0  0
  3  1  1  0  0  0  0
  4  2  1  0  0  0  0
  4 33  1  0  0  0  0
  5  3  2  0  0  0  0
  5  6  1  0  0  0  0
  6  4  2  0  0  0  0
  7  8  2  0  0  0  0
  7  6  1  0  0  0  0
  9  7  1  0  0  0  0
 10 34  1  0  0  0  0
 10  8  1  0  0  0  0
 11  9  2  0  0  0  0
 12 13  1  0  0  0  0
 12  9  1  0  0  0  0
 13 10  2  0  0  0  0
 14 11  1  0  0  0  0
 15 14  1  0  0  0  0
 15 12  2  0  0  0  0
 16 13  1  1  0  0  0
 16 18  1  0  0  0  0
 17 19  2  0  0  0  0
 17 16  1  0  0  0  0
 18 20  2  0  0  0  0
 19 21  1  0  0  0  0
 20 23  1  0  0  0  0
 21 24  2  0  0  0  0
 21 18  1  0  0  0  0
 22 19  1  0  0  0  0
 22 25  2  0  0  0  0
 23 35  1  0  0  0  0
 24 27  1  0  0  0  0
 25 36  1  0  0  0  0
 26 29  1  0  0  0  0
 26 22  1  0  0  0  0
 27 37  1  0  0  0  0
 27 23  2  0  0  0  0
 28 38  1  0  0  0  0
 28 25  1  0  0  0  0
 29 28  2  0  0  0  0
 32  3  1  0  0  0  0
 39 29  1  0  0  0  0
M  END
$$$$
scan_sander_basal/min_pdbs/min_pdb_C169_090.pdb
 OpenBabel09051718453D

 39 44  0  0  1  0  0  0  0  0999 V2000
    0.2390   -0.0710    0.6470 C   0  0  0  0  0  0  0  0  0  0  0  0
    1.5080    0.1570    1.1940 C   0  0  0  0  0  0  0  0  0  0  0  0
   -0.4060    0.9810   -0.0180 C   0  0  0  0  0  0  0  0  0  0  0  0
    2.0750    1.4310    1.0500 C   0  0  0  0  0  0  0  0  0  0  0  0
    0.1460    2.2000   -0.1520 N   0  0  0  0  0  0  0  0  0  0  0  0
    1.3690    2.4570    0.3650 C   0  0  0  0  0  0  0  0  0  0  0  0
    1.9580    3.8390    0.1860 C   0  0  0  0  0  0  0  0  0  0  0  0
    3.3030    3.9240    0.2820 N   0  0  0  0  0  0  0  0  0  0  0  0
    1.2120    5.0270   -0.0500 C   0  0  0  0  0  0  0  0  0  0  0  0
    3.9330    5.1060    0.1370 C   0  0  0  0  0  0  0  0  0  0  0  0
   -0.1370    5.0980   -0.1120 N   0  0  0  0  0  0  0  0  0  0  0  0
    1.8660    6.2490   -0.2070 C   0  0  0  0  0  0  0  0  0  0  0  0
    3.2820    6.3340   -0.1280 C   0  0  0  0  0  0  0  0  0  0  0  0
   -0.4850    6.6690   -0.3750 S   0  0  0  0  0  0  0  0  0  0  0  0
    1.0260    7.2900   -0.4010 N   0  0  0  0  0  0  0  0  0  0  0  0
    4.0530    7.6050   -0.2740 C   0  0  1  0  0  0  0  0  0  0  0  0
    3.2960    9.1060   -0.8890 B   0  0  0  0  0  0  0  0  0  0  0  0
    5.4730    7.8310    0.0550 C   0  0  0  0  0  0  0  0  0  0  0  0
    4.8550    9.9080   -0.8340 C   0  0  0  0  0  0  0  0  0  0  0  0
    6.2890    6.9520    0.6750 N   0  0  0  0  0  0  0  0  0  0  0  0
    5.9200    9.1100   -0.2800 C   0  0  0  0  0  0  0  0  0  0  0  0
    5.1440   11.2340   -1.2860 C   0  0  0  0  0  0  0  0  0  0  0  0
    7.5530    7.3700    0.9090 C   0  0  0  0  0  0  0  0  0  0  0  0
    7.1750    9.5520   -0.0540 N   0  0  0  0  0  0  0  0  0  0  0  0
    5.0280   12.2930   -0.4260 C   0  0  0  0  0  0  0  0  0  0  0  0
    5.6480   11.6990   -2.9010 S   0  0  0  0  0  0  0  0  0  0  0  0
    7.9950    8.6590    0.5410 C   0  0  0  0  0  0  0  0  0  0  0  0
    5.3460   13.5280   -1.0620 C   0  0  0  0  0  0  0  0  0  0  0  0
    5.6940   13.3860   -2.3860 C   0  0  0  0  0  0  0  0  0  0  0  0
   -0.2370   -1.0430    0.7350 H   0  0  0  0  0  0  0  0  0  0  0  0
    2.0410   -0.6340    1.7160 H   0  0  0  0  0  0  0  0  0  0  0  0
   -1.3940    0.8450   -0.4580 H   0  0  0  0  0  0  0  0  0  0  0  0
    3.0570    1.6290    1.4690 H   0  0  0  0  0  0  0  0  0  0  0  0
    5.0120    5.0240    0.1890 H   0  0  0  0  0  0  0  0  0  0  0  0
    8.2210    6.6640    1.3990 H   0  0  0  0  0  0  0  0  0  0  0  0
    4.7330   12.2070    0.6140 H   0  0  0  0  0  0  0  0  0  0  0  0
    9.0160    8.9840    0.7360 H   0  0  0  0  0  0  0  0  0  0  0  0
    5.3150   14.4820   -0.5460 H   0  0  0  0  0  0  0  0  0  0  0  0
    5.9790   14.1530   -3.0940 H   0  0  0  0  0  0  0  0  0  0  0  0
  1 30  1  0  0  0  0
  1  2  2  0  0  0  0
  2 31  1  0  0  0  0
  3  1  1  0  0  0  0
  4  2  1  0  0  0  0
  4 33  1  0  0  0  0
  5  3  2  0  0  0  0
  5  6  1  0  0  0  0
  6  4  2  0  0  0  0
  7  8  2  0  0  0  0
  7  6  1  0  0  0  0
  9  7  1  0  0  0  0
 10 34  1  0  0  0  0
 10  8  1  0  0  0  0
 11  9  2  0  0  0  0
 12 13  1  0  0  0  0
 12  9  1  0  0  0  0
 13 10  2  0  0  0  0
 14 11  1  0  0  0  0
 15 14  1  0  0  0  0
 15 12  2  0  0  0  0
 16 13  1  1  0  0  0
 16 18  1  0  0  0  0
 17 19  2  0  0  0  0
 17 16  1  0  0  0  0
 18 20  2  0  0  0  0
 19 21  1  0  0  0  0
 20 23  1  0  0  0  0
 21 24  2  0  0  0  0
 21 18  1  0  0  0  0
 22 19  1  0  0  0  0
 22 25  2  0  0  0  0
 23 35  1  0  0  0  0
 24 27  1  0  0  0  0
 25 36  1  0  0  0  0
 26 29  1  0  0  0  0
 26 22  1  0  0  0  0
 27 37  1  0  0  0  0
 27 23  2  0  0  0  0
 28 38  1  0  0  0  0
 28 25  1  0  0  0  0
 29 28  2  0  0  0  0
 32  3  1  0  0  0  0
 39 29  1  0  0  0  0
M  END
$$$$
scan_sander_basal/min_pdbs/min_pdb_C169_105.pdb
 OpenBabel09051718453D

 39 44  0  0  1  0  0  0  0  0999 V2000
    0.2580   -0.0870    0.6460 C   0  0  0  0  0  0  0  0  0  0  0  0
    1.5210    0.1510    1.2020 C   0  0  0  0  0  0  0  0  0  0  0  0
   -0.3880    0.9580   -0.0300 C   0  0  0  0  0  0  0  0  0  0  0  0
    2.0820    1.4280    1.0570 C   0  0  0  0  0  0  0  0  0  0  0  0
    0.1580    2.1800   -0.1650 N   0  0  0  0  0  0  0  0  0  0  0  0
    1.3750    2.4470    0.3610 C   0  0  0  0  0  0  0  0  0  0  0  0
    1.9580    3.8320    0.1810 C   0  0  0  0  0  0  0  0  0  0  0  0
    3.3020    3.9250    0.2880 N   0  0  0  0  0  0  0  0  0  0  0  0
    1.2080    5.0130   -0.0660 C   0  0  0  0  0  0  0  0  0  0  0  0
    3.9260    5.1100    0.1440 C   0  0  0  0  0  0  0  0  0  0  0  0
   -0.1410    5.0770   -0.1420 N   0  0  0  0  0  0  0  0  0  0  0  0
    1.8550    6.2390   -0.2220 C   0  0  0  0  0  0  0  0  0  0  0  0
    3.2710    6.3330   -0.1310 C   0  0  0  0  0  0  0  0  0  0  0  0
   -0.4960    6.6440   -0.4140 S   0  0  0  0  0  0  0  0  0  0  0  0
    1.0110    7.2740   -0.4280 N   0  0  0  0  0  0  0  0  0  0  0  0
    4.0340    7.6090   -0.2730 C   0  0  1  0  0  0  0  0  0  0  0  0
    3.2740    9.1020   -0.8990 B   0  0  0  0  0  0  0  0  0  0  0  0
    5.4500    7.8450    0.0690 C   0  0  0  0  0  0  0  0  0  0  0  0
    4.8210    9.9230   -0.8160 C   0  0  0  0  0  0  0  0  0  0  0  0
    6.2690    6.9690    0.6880 N   0  0  0  0  0  0  0  0  0  0  0  0
    5.8900    9.1300   -0.2570 C   0  0  0  0  0  0  0  0  0  0  0  0
    5.1050   11.2440   -1.2890 C   0  0  0  0  0  0  0  0  0  0  0  0
    7.5290    7.3940    0.9310 C   0  0  0  0  0  0  0  0  0  0  0  0
    7.1400    9.5780   -0.0220 N   0  0  0  0  0  0  0  0  0  0  0  0
    5.2520   12.2760   -0.4010 C   0  0  0  0  0  0  0  0  0  0  0  0
    5.2370   11.7440   -2.9650 S   0  0  0  0  0  0  0  0  0  0  0  0
    7.9640    8.6880    0.5720 C   0  0  0  0  0  0  0  0  0  0  0  0
    5.4930   13.5140   -1.0640 C   0  0  0  0  0  0  0  0  0  0  0  0
    5.5150   13.4040   -2.4350 C   0  0  0  0  0  0  0  0  0  0  0  0
   -0.2140   -1.0610    0.7340 H   0  0  0  0  0  0  0  0  0  0  0  0
    2.0540   -0.6340    1.7330 H   0  0  0  0  0  0  0  0  0  0  0  0
   -1.3710    0.8140   -0.4770 H   0  0  0  0  0  0  0  0  0  0  0  0
    3.0590    1.6330    1.4830 H   0  0  0  0  0  0  0  0  0  0  0  0
    5.0050    5.0330    0.2060 H   0  0  0  0  0  0  0  0  0  0  0  0
    8.1990    6.6900    1.4210 H   0  0  0  0  0  0  0  0  0  0  0  0
    5.1970   12.1690    0.6760 H   0  0  0  0  0  0  0  0  0  0  0  0
    8.9810    9.0190    0.7740 H   0  0  0  0  0  0  0  0  0  0  0  0
    5.6420   14.4490   -0.5320 H   0  0  0  0  0  0  0  0  0  0  0  0
    5.6770   14.1800   -3.1720 H   0  0  0  0  0  0  0  0  0  0  0  0
  1 30  1  0  0  0  0
  1  2  2  0  0  0  0
  2 31  1  0  0  0  0
  3  1  1  0  0  0  0
  4  2  1  0  0  0  0
  4 33  1  0  0  0  0
  5  3  2  0  0  0  0
  5  6  1  0  0  0  0
  6  4  2  0  0  0  0
  7  8  2  0  0  0  0
  7  6  1  0  0  0  0
  9  7  1  0  0  0  0
 10 34  1  0  0  0  0
 10  8  1  0  0  0  0
 11  9  2  0  0  0  0
 12 13  1  0  0  0  0
 12  9  1  0  0  0  0
 13 10  2  0  0  0  0
 14 11  1  0  0  0  0
 15 14  1  0  0  0  0
 15 12  2  0  0  0  0
 16 13  1  1  0  0  0
 16 18  1  0  0  0  0
 17 19  2  0  0  0  0
 17 16  1  0  0  0  0
 18 20  2  0  0  0  0
 19 21  1  0  0  0  0
 20 23  1  0  0  0  0
 21 24  2  0  0  0  0
 21 18  1  0  0  0  0
 22 19  1  0  0  0  0
 22 25  2  0  0  0  0
 23 35  1  0  0  0  0
 24 27  1  0  0  0  0
 25 36  1  0  0  0  0
 26 29  1  0  0  0  0
 26 22  1  0  0  0  0
 27 37  1  0  0  0  0
 27 23  2  0  0  0  0
 28 38  1  0  0  0  0
 28 25  1  0  0  0  0
 29 28  2  0  0  0  0
 32  3  1  0  0  0  0
 39 29  1  0  0  0  0
M  END
$$$$
scan_sander_basal/min_pdbs/min_pdb_C169_120.pdb
 OpenBabel09051718453D

 39 44  0  0  1  0  0  0  0  0999 V2000
    0.2750   -0.1020    0.6140 C   0  0  0  0  0  0  0  0  0  0  0  0
    1.5310    0.1400    1.1820 C   0  0  0  0  0  0  0  0  0  0  0  0
   -0.3700    0.9430   -0.0630 C   0  0  0  0  0  0  0  0  0  0  0  0
    2.0870    1.4210    1.0480 C   0  0  0  0  0  0  0  0  0  0  0  0
    0.1710    2.1680   -0.1890 N   0  0  0  0  0  0  0  0  0  0  0  0
    1.3820    2.4390    0.3500 C   0  0  0  0  0  0  0  0  0  0  0  0
    1.9600    3.8270    0.1800 C   0  0  0  0  0  0  0  0  0  0  0  0
    3.3020    3.9260    0.3000 N   0  0  0  0  0  0  0  0  0  0  0  0
    1.2060    5.0060   -0.0690 C   0  0  0  0  0  0  0  0  0  0  0  0
    3.9220    5.1150    0.1660 C   0  0  0  0  0  0  0  0  0  0  0  0
   -0.1420    5.0630   -0.1560 N   0  0  0  0  0  0  0  0  0  0  0  0
    1.8490    6.2350   -0.2160 C   0  0  0  0  0  0  0  0  0  0  0  0
    3.2630    6.3350   -0.1120 C   0  0  0  0  0  0  0  0  0  0  0  0
   -0.5030    6.6300   -0.4260 S   0  0  0  0  0  0  0  0  0  0  0  0
    1.0020    7.2670   -0.4250 N   0  0  0  0  0  0  0  0  0  0  0  0
    4.0220    7.6160   -0.2450 C   0  0  1  0  0  0  0  0  0  0  0  0
    3.2590    9.1060   -0.8730 B   0  0  0  0  0  0  0  0  0  0  0  0
    5.4330    7.8610    0.1090 C   0  0  0  0  0  0  0  0  0  0  0  0
    4.7950    9.9450   -0.7600 C   0  0  0  0  0  0  0  0  0  0  0  0
    6.2560    6.9810    0.7190 N   0  0  0  0  0  0  0  0  0  0  0  0
    5.8660    9.1520   -0.2010 C   0  0  0  0  0  0  0  0  0  0  0  0
    5.0750   11.2510   -1.2780 C   0  0  0  0  0  0  0  0  0  0  0  0
    7.5130    7.4080    0.9690 C   0  0  0  0  0  0  0  0  0  0  0  0
    7.1160    9.5990    0.0390 N   0  0  0  0  0  0  0  0  0  0  0  0
    5.4730   12.2610   -0.4410 C   0  0  0  0  0  0  0  0  0  0  0  0
    4.8120   11.7880   -2.9280 S   0  0  0  0  0  0  0  0  0  0  0  0
    7.9430    8.7070    0.6240 C   0  0  0  0  0  0  0  0  0  0  0  0
    5.6210   13.4980   -1.1320 C   0  0  0  0  0  0  0  0  0  0  0  0
    5.3130   13.4160   -2.4700 C   0  0  0  0  0  0  0  0  0  0  0  0
   -0.1930   -1.0780    0.6940 H   0  0  0  0  0  0  0  0  0  0  0  0
    2.0630   -0.6440    1.7150 H   0  0  0  0  0  0  0  0  0  0  0  0
   -1.3480    0.7960   -0.5210 H   0  0  0  0  0  0  0  0  0  0  0  0
    3.0590    1.6290    1.4840 H   0  0  0  0  0  0  0  0  0  0  0  0
    5.0000    5.0420    0.2370 H   0  0  0  0  0  0  0  0  0  0  0  0
    8.1850    6.7010    1.4520 H   0  0  0  0  0  0  0  0  0  0  0  0
    5.6590   12.1370    0.6200 H   0  0  0  0  0  0  0  0  0  0  0  0
    8.9590    9.0400    0.8300 H   0  0  0  0  0  0  0  0  0  0  0  0
    5.9420   14.4120   -0.6420 H   0  0  0  0  0  0  0  0  0  0  0  0
    5.3390   14.1980   -3.2170 H   0  0  0  0  0  0  0  0  0  0  0  0
  1 30  1  0  0  0  0
  1  2  2  0  0  0  0
  2 31  1  0  0  0  0
  3  1  1  0  0  0  0
  4  2  1  0  0  0  0
  4 33  1  0  0  0  0
  5  3  2  0  0  0  0
  5  6  1  0  0  0  0
  6  4  2  0  0  0  0
  7  8  2  0  0  0  0
  7  6  1  0  0  0  0
  9  7  1  0  0  0  0
 10 34  1  0  0  0  0
 10  8  1  0  0  0  0
 11  9  2  0  0  0  0
 12 13  1  0  0  0  0
 12  9  1  0  0  0  0
 13 10  2  0  0  0  0
 14 15  1  0  0  0  0
 14 11  1  0  0  0  0
 15 12  2  0  0  0  0
 16 13  1  1  0  0  0
 16 18  1  0  0  0  0
 17 19  2  0  0  0  0
 17 16  1  0  0  0  0
 18 20  2  0  0  0  0
 19 21  1  0  0  0  0
 20 23  1  0  0  0  0
 21 24  2  0  0  0  0
 21 18  1  0  0  0  0
 22 19  1  0  0  0  0
 22 25  2  0  0  0  0
 23 35  1  0  0  0  0
 24 27  1  0  0  0  0
 25 36  1  0  0  0  0
 26 29  1  0  0  0  0
 26 22  1  0  0  0  0
 27 37  1  0  0  0  0
 27 23  2  0  0  0  0
 28 38  1  0  0  0  0
 28 25  1  0  0  0  0
 29 28  2  0  0  0  0
 32  3  1  0  0  0  0
 39 29  1  0  0  0  0
M  END
$$$$
scan_sander_basal/min_pdbs/min_pdb_C169_135.pdb
 OpenBabel09051718453D

 39 44  0  0  1  0  0  0  0  0999 V2000
    0.2810   -0.1100    0.6080 C   0  0  0  0  0  0  0  0  0  0  0  0
    1.5260    0.1410    1.1990 C   0  0  0  0  0  0  0  0  0  0  0  0
   -0.3530    0.9270   -0.0910 C   0  0  0  0  0  0  0  0  0  0  0  0
    2.0810    1.4220    1.0630 C   0  0  0  0  0  0  0  0  0  0  0  0
    0.1880    2.1530   -0.2170 N   0  0  0  0  0  0  0  0  0  0  0  0
    1.3870    2.4310    0.3430 C   0  0  0  0  0  0  0  0  0  0  0  0
    1.9650    3.8190    0.1720 C   0  0  0  0  0  0  0  0  0  0  0  0
    3.3040    3.9230    0.3170 N   0  0  0  0  0  0  0  0  0  0  0  0
    1.2130    4.9950   -0.1020 C   0  0  0  0  0  0  0  0  0  0  0  0
    3.9240    5.1120    0.1850 C   0  0  0  0  0  0  0  0  0  0  0  0
   -0.1330    5.0470   -0.2150 N   0  0  0  0  0  0  0  0  0  0  0  0
    1.8560    6.2240   -0.2460 C   0  0  0  0  0  0  0  0  0  0  0  0
    3.2680    6.3300   -0.1150 C   0  0  0  0  0  0  0  0  0  0  0  0
   -0.4930    6.6100   -0.5050 S   0  0  0  0  0  0  0  0  0  0  0  0
    1.0100    7.2520   -0.4810 N   0  0  0  0  0  0  0  0  0  0  0  0
    4.0250    7.6120   -0.2430 C   0  0  1  0  0  0  0  0  0  0  0  0
    3.2680    9.0930   -0.8970 B   0  0  0  0  0  0  0  0  0  0  0  0
    5.4280    7.8690    0.1350 C   0  0  0  0  0  0  0  0  0  0  0  0
    4.7810    9.9640   -0.7160 C   0  0  0  0  0  0  0  0  0  0  0  0
    6.2530    6.9830    0.7310 N   0  0  0  0  0  0  0  0  0  0  0  0
    5.8520    9.1700   -0.1490 C   0  0  0  0  0  0  0  0  0  0  0  0
    5.0480   11.2650   -1.2610 C   0  0  0  0  0  0  0  0  0  0  0  0
    7.5060    7.4110    0.9960 C   0  0  0  0  0  0  0  0  0  0  0  0
    7.1030    9.6140    0.1000 N   0  0  0  0  0  0  0  0  0  0  0  0
    5.6580   12.2380   -0.5100 C   0  0  0  0  0  0  0  0  0  0  0  0
    4.4310   11.8770   -2.7880 S   0  0  0  0  0  0  0  0  0  0  0  0
    7.9320    8.7170    0.6740 C   0  0  0  0  0  0  0  0  0  0  0  0
    5.7140   13.4880   -1.1920 C   0  0  0  0  0  0  0  0  0  0  0  0
    5.1160   13.4620   -2.4300 C   0  0  0  0  0  0  0  0  0  0  0  0
   -0.1850   -1.0860    0.6880 H   0  0  0  0  0  0  0  0  0  0  0  0
    2.0500   -0.6380    1.7480 H   0  0  0  0  0  0  0  0  0  0  0  0
   -1.3210    0.7740   -0.5660 H   0  0  0  0  0  0  0  0  0  0  0  0
    3.0440    1.6360    1.5160 H   0  0  0  0  0  0  0  0  0  0  0  0
    5.0000    5.0420    0.2800 H   0  0  0  0  0  0  0  0  0  0  0  0
    8.1800    6.6980    1.4690 H   0  0  0  0  0  0  0  0  0  0  0  0
    6.0530   12.0850    0.4880 H   0  0  0  0  0  0  0  0  0  0  0  0
    8.9460    9.0500    0.8880 H   0  0  0  0  0  0  0  0  0  0  0  0
    6.1770   14.3720   -0.7650 H   0  0  0  0  0  0  0  0  0  0  0  0
    5.0160   14.2650   -3.1480 H   0  0  0  0  0  0  0  0  0  0  0  0
  1 30  1  0  0  0  0
  1  2  2  0  0  0  0
  2 31  1  0  0  0  0
  3  1  1  0  0  0  0
  4  2  1  0  0  0  0
  4 33  1  0  0  0  0
  5  3  2  0  0  0  0
  5  6  1  0  0  0  0
  6  4  2  0  0  0  0
  7  8  2  0  0  0  0
  7  6  1  0  0  0  0
  9  7  1  0  0  0  0
 10 34  1  0  0  0  0
 10  8  1  0  0  0  0
 11  9  2  0  0  0  0
 12 13  1  0  0  0  0
 12  9  1  0  0  0  0
 13 10  2  0  0  0  0
 14 15  1  0  0  0  0
 14 11  1  0  0  0  0
 15 12  2  0  0  0  0
 16 13  1  1  0  0  0
 16 18  1  0  0  0  0
 17 19  2  0  0  0  0
 17 16  1  0  0  0  0
 18 20  2  0  0  0  0
 19 21  1  0  0  0  0
 20 23  1  0  0  0  0
 21 24  2  0  0  0  0
 21 18  1  0  0  0  0
 22 19  1  0  0  0  0
 22 25  2  0  0  0  0
 23 35  1  0  0  0  0
 24 27  1  0  0  0  0
 25 36  1  0  0  0  0
 26 29  1  0  0  0  0
 26 22  1  0  0  0  0
 27 37  1  0  0  0  0
 27 23  2  0  0  0  0
 28 38  1  0  0  0  0
 28 25  1  0  0  0  0
 29 28  2  0  0  0  0
 32  3  1  0  0  0  0
 39 29  1  0  0  0  0
M  END
$$$$
scan_sander_basal/min_pdbs/min_pdb_C169_150.pdb
 OpenBabel09051718453D

 39 44  0  0  1  0  0  0  0  0999 V2000
    0.2850   -0.1170    0.5850 C   0  0  0  0  0  0  0  0  0  0  0  0
    1.5150    0.1390    1.2030 C   0  0  0  0  0  0  0  0  0  0  0  0
   -0.3350    0.9150   -0.1330 C   0  0  0  0  0  0  0  0  0  0  0  0
    2.0700    1.4200    1.0750 C   0  0  0  0  0  0  0  0  0  0  0  0
    0.2060    2.1420   -0.2520 N   0  0  0  0  0  0  0  0  0  0  0  0
    1.3910    2.4250    0.3340 C   0  0  0  0  0  0  0  0  0  0  0  0
    1.9700    3.8140    0.1690 C   0  0  0  0  0  0  0  0  0  0  0  0
    3.3050    3.9210    0.3440 N   0  0  0  0  0  0  0  0  0  0  0  0
    1.2230    4.9860   -0.1280 C   0  0  0  0  0  0  0  0  0  0  0  0
    3.9250    5.1100    0.2190 C   0  0  0  0  0  0  0  0  0  0  0  0
   -0.1210    5.0350   -0.2710 N   0  0  0  0  0  0  0  0  0  0  0  0
    1.8670    6.2150   -0.2660 C   0  0  0  0  0  0  0  0  0  0  0  0
    3.2750    6.3250   -0.1050 C   0  0  0  0  0  0  0  0  0  0  0  0
   -0.4770    6.5960   -0.5780 S   0  0  0  0  0  0  0  0  0  0  0  0
    1.0230    7.2400   -0.5250 N   0  0  0  0  0  0  0  0  0  0  0  0
    4.0330    7.6080   -0.2290 C   0  0  1  0  0  0  0  0  0  0  0  0
    3.2860    9.0780   -0.9110 B   0  0  0  0  0  0  0  0  0  0  0  0
    5.4250    7.8760    0.1750 C   0  0  0  0  0  0  0  0  0  0  0  0
    4.7770    9.9780   -0.6770 C   0  0  0  0  0  0  0  0  0  0  0  0
    6.2480    6.9850    0.7660 N   0  0  0  0  0  0  0  0  0  0  0  0
    5.8470    9.1830   -0.0940 C   0  0  0  0  0  0  0  0  0  0  0  0
    5.0130   11.2850   -1.2370 C   0  0  0  0  0  0  0  0  0  0  0  0
    7.4990    7.4090    1.0440 C   0  0  0  0  0  0  0  0  0  0  0  0
    7.1000    9.6160    0.1620 N   0  0  0  0  0  0  0  0  0  0  0  0
    5.8230   12.2150   -0.6320 C   0  0  0  0  0  0  0  0  0  0  0  0
    4.0860   11.9800   -2.5610 S   0  0  0  0  0  0  0  0  0  0  0  0
    7.9260    8.7160    0.7340 C   0  0  0  0  0  0  0  0  0  0  0  0
    5.7920   13.4770   -1.2940 C   0  0  0  0  0  0  0  0  0  0  0  0
    4.9290   13.5130   -2.3620 C   0  0  0  0  0  0  0  0  0  0  0  0
   -0.1810   -1.0950    0.6580 H   0  0  0  0  0  0  0  0  0  0  0  0
    2.0280   -0.6360    1.7680 H   0  0  0  0  0  0  0  0  0  0  0  0
   -1.2920    0.7580   -0.6290 H   0  0  0  0  0  0  0  0  0  0  0  0
    3.0220    1.6390    1.5480 H   0  0  0  0  0  0  0  0  0  0  0  0
    4.9990    5.0410    0.3390 H   0  0  0  0  0  0  0  0  0  0  0  0
    8.1690    6.6910    1.5140 H   0  0  0  0  0  0  0  0  0  0  0  0
    6.4150   12.0410    0.2580 H   0  0  0  0  0  0  0  0  0  0  0  0
    8.9400    9.0470    0.9530 H   0  0  0  0  0  0  0  0  0  0  0  0
    6.3840   14.3270   -0.9690 H   0  0  0  0  0  0  0  0  0  0  0  0
    4.7110   14.3380   -3.0280 H   0  0  0  0  0  0  0  0  0  0  0  0
  1 30  1  0  0  0  0
  1  2  2  0  0  0  0
  2 31  1  0  0  0  0
  3  1  1  0  0  0  0
  4  2  1  0  0  0  0
  4 33  1  0  0  0  0
  5  3  2  0  0  0  0
  5  6  1  0  0  0  0
  6  4  2  0  0  0  0
  7  6  1  0  0  0  0
  7  8  2  0  0  0  0
  9  7  1  0  0  0  0
 10 34  1  0  0  0  0
 10  8  1  0  0  0  0
 11  9  2  0  0  0  0
 12  9  1  0  0  0  0
 12 13  1  0  0  0  0
 13 10  2  0  0  0  0
 14 15  1  0  0  0  0
 14 11  1  0  0  0  0
 15 12  2  0  0  0  0
 16 13  1  1  0  0  0
 16 18  1  0  0  0  0
 17 19  2  0  0  0  0
 17 16  1  0  0  0  0
 18 20  2  0  0  0  0
 19 21  1  0  0  0  0
 20 23  1  0  0  0  0
 21 24  2  0  0  0  0
 21 18  1  0  0  0  0
 22 19  1  0  0  0  0
 22 25  2  0  0  0  0
 23 35  1  0  0  0  0
 24 27  1  0  0  0  0
 25 36  1  0  0  0  0
 26 29  1  0  0  0  0
 26 22  1  0  0  0  0
 27 37  1  0  0  0  0
 27 23  2  0  0  0  0
 28 38  1  0  0  0  0
 28 25  1  0  0  0  0
 29 28  2  0  0  0  0
 32  3  1  0  0  0  0
 39 29  1  0  0  0  0
M  END
$$$$
scan_sander_basal/min_pdbs/min_pdb_C169_165.pdb
 OpenBabel09051718453D

 39 44  0  0  1  0  0  0  0  0999 V2000
    0.3000   -0.1270    0.5230 C   0  0  0  0  0  0  0  0  0  0  0  0
    1.5250    0.1260    1.1530 C   0  0  0  0  0  0  0  0  0  0  0  0
   -0.3180    0.9110   -0.1880 C   0  0  0  0  0  0  0  0  0  0  0  0
    2.0770    1.4110    1.0430 C   0  0  0  0  0  0  0  0  0  0  0  0
    0.2190    2.1410   -0.2890 N   0  0  0  0  0  0  0  0  0  0  0  0
    1.4000    2.4220    0.3090 C   0  0  0  0  0  0  0  0  0  0  0  0
    1.9750    3.8140    0.1640 C   0  0  0  0  0  0  0  0  0  0  0  0
    3.3080    3.9240    0.3500 N   0  0  0  0  0  0  0  0  0  0  0  0
    1.2250    4.9870   -0.1250 C   0  0  0  0  0  0  0  0  0  0  0  0
    3.9250    5.1160    0.2430 C   0  0  0  0  0  0  0  0  0  0  0  0
   -0.1170    5.0330   -0.2780 N   0  0  0  0  0  0  0  0  0  0  0  0
    1.8660    6.2200   -0.2440 C   0  0  0  0  0  0  0  0  0  0  0  0
    3.2730    6.3320   -0.0710 C   0  0  0  0  0  0  0  0  0  0  0  0
   -0.4770    6.5960   -0.5700 S   0  0  0  0  0  0  0  0  0  0  0  0
    1.0210    7.2440   -0.4980 N   0  0  0  0  0  0  0  0  0  0  0  0
    4.0270    7.6190   -0.1730 C   0  0  1  0  0  0  0  0  0  0  0  0
    3.2830    9.0940   -0.8420 B   0  0  0  0  0  0  0  0  0  0  0  0
    5.4130    7.8870    0.2440 C   0  0  0  0  0  0  0  0  0  0  0  0
    4.7880    9.9840   -0.6480 C   0  0  0  0  0  0  0  0  0  0  0  0
    6.2120    7.0000    0.8750 N   0  0  0  0  0  0  0  0  0  0  0  0
    5.8480    9.1890   -0.0380 C   0  0  0  0  0  0  0  0  0  0  0  0
    4.9760   11.3070   -1.2030 C   0  0  0  0  0  0  0  0  0  0  0  0
    7.4590    7.4180    1.1770 C   0  0  0  0  0  0  0  0  0  0  0  0
    7.0980    9.6110    0.2500 N   0  0  0  0  0  0  0  0  0  0  0  0
    5.9880   12.1730   -0.8560 C   0  0  0  0  0  0  0  0  0  0  0  0
    3.7980   12.0790   -2.2610 S   0  0  0  0  0  0  0  0  0  0  0  0
    7.9030    8.7150    0.8570 C   0  0  0  0  0  0  0  0  0  0  0  0
    5.8720   13.4400   -1.4990 C   0  0  0  0  0  0  0  0  0  0  0  0
    4.7650   13.5490   -2.3030 C   0  0  0  0  0  0  0  0  0  0  0  0
   -0.1630   -1.1070    0.5820 H   0  0  0  0  0  0  0  0  0  0  0  0
    2.0360   -0.6530    1.7130 H   0  0  0  0  0  0  0  0  0  0  0  0
   -1.2710    0.7560   -0.6920 H   0  0  0  0  0  0  0  0  0  0  0  0
    3.0250    1.6270    1.5260 H   0  0  0  0  0  0  0  0  0  0  0  0
    4.9990    5.0500    0.3680 H   0  0  0  0  0  0  0  0  0  0  0  0
    8.1110    6.7030    1.6770 H   0  0  0  0  0  0  0  0  0  0  0  0
    6.7910   11.9690   -0.1620 H   0  0  0  0  0  0  0  0  0  0  0  0
    8.9130    9.0440    1.0990 H   0  0  0  0  0  0  0  0  0  0  0  0
    6.5890   14.2420   -1.3530 H   0  0  0  0  0  0  0  0  0  0  0  0
    4.4390   14.3930   -2.8970 H   0  0  0  0  0  0  0  0  0  0  0  0
  1 30  1  0  0  0  0
  1  2  2  0  0  0  0
  2 31  1  0  0  0  0
  3  1  1  0  0  0  0
  4  2  1  0  0  0  0
  4 33  1  0  0  0  0
  5  3  2  0  0  0  0
  5  6  1  0  0  0  0
  6  4  2  0  0  0  0
  7  6  1  0  0  0  0
  7  8  2  0  0  0  0
  9  7  1  0  0  0  0
 10  8  1  0  0  0  0
 10 34  1  0  0  0  0
 11  9  2  0  0  0  0
 12  9  1  0  0  0  0
 12 13  1  0  0  0  0
 13 10  2  0  0  0  0
 14 15  1  0  0  0  0
 14 11  1  0  0  0  0
 15 12  2  0  0  0  0
 16 13  1  1  0  0  0
 16 18  1  0  0  0  0
 17 19  2  0  0  0  0
 17 16  1  0  0  0  0
 18 20  1  0  0  0  0
 19 21  1  0  0  0  0
 20 23  2  0  0  0  0
 21 18  2  0  0  0  0
 21 24  1  0  0  0  0
 22 25  2  0  0  0  0
 22 19  1  0  0  0  0
 23 35  1  0  0  0  0
 24 27  2  0  0  0  0
 25 36  1  0  0  0  0
 26 22  1  0  0  0  0
 27 37  1  0  0  0  0
 27 23  1  0  0  0  0
 28 38  1  0  0  0  0
 28 25  1  0  0  0  0
 29 26  1  0  0  0  0
 29 28  2  0  0  0  0
 32  3  1  0  0  0  0
 39 29  1  0  0  0  0
M  END
$$$$
scan_sander_basal/min_pdbs/min_pdb_C169_180.pdb
 OpenBabel09051718453D

 39 44  0  0  1  0  0  0  0  0999 V2000
    0.3520   -0.1390    0.3950 C   0  0  0  0  0  0  0  0  0  0  0  0
    1.5940    0.0970    0.9950 C   0  0  0  0  0  0  0  0  0  0  0  0
   -0.2990    0.9240   -0.2470 C   0  0  0  0  0  0  0  0  0  0  0  0
    2.1310    1.3910    0.9270 C   0  0  0  0  0  0  0  0  0  0  0  0
    0.2230    2.1630   -0.3080 N   0  0  0  0  0  0  0  0  0  0  0  0
    1.4200    2.4280    0.2630 C   0  0  0  0  0  0  0  0  0  0  0  0
    1.9770    3.8310    0.1650 C   0  0  0  0  0  0  0  0  0  0  0  0
    3.3150    3.9460    0.3130 N   0  0  0  0  0  0  0  0  0  0  0  0
    1.2070    5.0080   -0.0440 C   0  0  0  0  0  0  0  0  0  0  0  0
    3.9170    5.1500    0.2450 C   0  0  0  0  0  0  0  0  0  0  0  0
   -0.1400    5.0480   -0.1530 N   0  0  0  0  0  0  0  0  0  0  0  0
    1.8310    6.2530   -0.1220 C   0  0  0  0  0  0  0  0  0  0  0  0
    3.2410    6.3700    0.0140 C   0  0  0  0  0  0  0  0  0  0  0  0
   -0.5210    6.6200   -0.3590 S   0  0  0  0  0  0  0  0  0  0  0  0
    0.9710    7.2810   -0.3000 N   0  0  0  0  0  0  0  0  0  0  0  0
    3.9810    7.6660   -0.0420 C   0  0  1  0  0  0  0  0  0  0  0  0
    3.2180    9.1710   -0.6080 B   0  0  0  0  0  0  0  0  0  0  0  0
    5.3760    7.9140    0.3490 C   0  0  0  0  0  0  0  0  0  0  0  0
    4.7780    9.9890   -0.6030 C   0  0  0  0  0  0  0  0  0  0  0  0
    6.1380    7.0480    1.0510 N   0  0  0  0  0  0  0  0  0  0  0  0
    5.8330    9.1970    0.0220 C   0  0  0  0  0  0  0  0  0  0  0  0
    4.9510   11.3100   -1.1730 C   0  0  0  0  0  0  0  0  0  0  0  0
    7.3750    7.4700    1.3840 C   0  0  0  0  0  0  0  0  0  0  0  0
    7.0600    9.6340    0.3740 N   0  0  0  0  0  0  0  0  0  0  0  0
    6.1290   12.0230   -1.2140 C   0  0  0  0  0  0  0  0  0  0  0  0
    3.6270   12.2070   -1.9120 S   0  0  0  0  0  0  0  0  0  0  0  0
    7.8360    8.7560    1.0430 C   0  0  0  0  0  0  0  0  0  0  0  0
    5.9800   13.2960   -1.8370 C   0  0  0  0  0  0  0  0  0  0  0  0
    4.7020   13.5530   -2.2660 C   0  0  0  0  0  0  0  0  0  0  0  0
   -0.1010   -1.1260    0.4230 H   0  0  0  0  0  0  0  0  0  0  0  0
    2.1310   -0.7020    1.5010 H   0  0  0  0  0  0  0  0  0  0  0  0
   -1.2670    0.7820   -0.7270 H   0  0  0  0  0  0  0  0  0  0  0  0
    3.0920    1.5950    1.3880 H   0  0  0  0  0  0  0  0  0  0  0  0
    4.9960    5.0960    0.3280 H   0  0  0  0  0  0  0  0  0  0  0  0
    8.0010    6.7720    1.9390 H   0  0  0  0  0  0  0  0  0  0  0  0
    7.0890   11.6970   -0.8420 H   0  0  0  0  0  0  0  0  0  0  0  0
    8.8330    9.0940    1.3240 H   0  0  0  0  0  0  0  0  0  0  0  0
    6.8050   13.9910   -1.9580 H   0  0  0  0  0  0  0  0  0  0  0  0
    4.3190   14.4330   -2.7660 H   0  0  0  0  0  0  0  0  0  0  0  0
  1 30  1  0  0  0  0
  1  2  2  0  0  0  0
  2 31  1  0  0  0  0
  3  1  1  0  0  0  0
  4  2  1  0  0  0  0
  4 33  1  0  0  0  0
  5  3  2  0  0  0  0
  5  6  1  0  0  0  0
  6  4  2  0  0  0  0
  7  6  1  0  0  0  0
  7  8  2  0  0  0  0
  9  7  1  0  0  0  0
 10  8  1  0  0  0  0
 10 34  1  0  0  0  0
 11  9  2  0  0  0  0
 12  9  1  0  0  0  0
 12 13  1  0  0  0  0
 13 10  2  0  0  0  0
 14 15  1  0  0  0  0
 14 11  1  0  0  0  0
 15 12  2  0  0  0  0
 16 13  1  1  0  0  0
 16 18  1  0  0  0  0
 17 19  2  0  0  0  0
 17 16  1  0  0  0  0
 18 20  1  0  0  0  0
 19 21  1  0  0  0  0
 20 23  2  0  0  0  0
 21 18  2  0  0  0  0
 21 24  1  0  0  0  0
 22 19  1  0  0  0  0
 23 35  1  0  0  0  0
 24 27  2  0  0  0  0
 25 22  2  0  0  0  0
 25 36  1  0  0  0  0
 26 22  1  0  0  0  0
 27 37  1  0  0  0  0
 27 23  1  0  0  0  0
 28 25  1  0  0  0  0
 29 26  1  0  0  0  0
 29 28  2  0  0  0  0
 32  3  1  0  0  0  0
 38 28  1  0  0  0  0
 39 29  1  0  0  0  0
M  END
$$$$
scan_sander_basal/min_pdbs/min_pdb_C169_195.pdb
 OpenBabel09051718453D

 39 44  0  0  1  0  0  0  0  0999 V2000
    0.3780   -0.1490    0.3860 C   0  0  0  0  0  0  0  0  0  0  0  0
    1.6210    0.0940    0.9830 C   0  0  0  0  0  0  0  0  0  0  0  0
   -0.2810    0.9130   -0.2510 C   0  0  0  0  0  0  0  0  0  0  0  0
    2.1500    1.3920    0.9160 C   0  0  0  0  0  0  0  0  0  0  0  0
    0.2340    2.1540   -0.3110 N   0  0  0  0  0  0  0  0  0  0  0  0
    1.4310    2.4260    0.2570 C   0  0  0  0  0  0  0  0  0  0  0  0
    1.9790    3.8330    0.1620 C   0  0  0  0  0  0  0  0  0  0  0  0
    3.3170    3.9560    0.3050 N   0  0  0  0  0  0  0  0  0  0  0  0
    1.2000    5.0050   -0.0430 C   0  0  0  0  0  0  0  0  0  0  0  0
    3.9100    5.1630    0.2390 C   0  0  0  0  0  0  0  0  0  0  0  0
   -0.1470    5.0370   -0.1490 N   0  0  0  0  0  0  0  0  0  0  0  0
    1.8160    6.2540   -0.1170 C   0  0  0  0  0  0  0  0  0  0  0  0
    3.2240    6.3790    0.0160 C   0  0  0  0  0  0  0  0  0  0  0  0
   -0.5390    6.6070   -0.3490 S   0  0  0  0  0  0  0  0  0  0  0  0
    0.9500    7.2780   -0.2910 N   0  0  0  0  0  0  0  0  0  0  0  0
    3.9570    7.6780   -0.0360 C   0  0  1  0  0  0  0  0  0  0  0  0
    3.1890    9.1860   -0.5920 B   0  0  0  0  0  0  0  0  0  0  0  0
    5.3520    7.9260    0.3550 C   0  0  0  0  0  0  0  0  0  0  0  0
    4.7610    9.9780   -0.6410 C   0  0  2  0  0  0  0  0  0  0  0  0
    6.1010    7.0820    1.0960 N   0  0  0  0  0  0  0  0  0  0  0  0
    5.8110    9.2010    0.0060 C   0  0  0  0  0  0  0  0  0  0  0  0
    4.9410   11.3320   -1.1120 C   0  0  0  0  0  0  0  0  0  0  0  0
    7.3280    7.5210    1.4470 C   0  0  0  0  0  0  0  0  0  0  0  0
    7.0210    9.6640    0.3870 N   0  0  0  0  0  0  0  0  0  0  0  0
    6.1600   11.8790   -1.4430 C   0  0  0  0  0  0  0  0  0  0  0  0
    3.6080   12.4010   -1.5390 S   0  0  0  0  0  0  0  0  0  0  0  0
    7.7860    8.8060    1.0930 C   0  0  0  0  0  0  0  0  0  0  0  0
    6.0420   13.1990   -1.9700 C   0  0  0  0  0  0  0  0  0  0  0  0
    4.7440   13.6370   -2.0690 C   0  0  0  0  0  0  0  0  0  0  0  0
   -0.0680   -1.1380    0.4140 H   0  0  0  0  0  0  0  0  0  0  0  0
    2.1640   -0.7030    1.4860 H   0  0  0  0  0  0  0  0  0  0  0  0
   -1.2490    0.7660   -0.7280 H   0  0  0  0  0  0  0  0  0  0  0  0
    3.1110    1.6000    1.3750 H   0  0  0  0  0  0  0  0  0  0  0  0
    4.9910    5.1200    0.3200 H   0  0  0  0  0  0  0  0  0  0  0  0
    7.9460    6.8410    2.0320 H   0  0  0  0  0  0  0  0  0  0  0  0
    7.1180   11.3870   -1.3540 H   0  0  0  0  0  0  0  0  0  0  0  0
    8.7720    9.1580    1.3950 H   0  0  0  0  0  0  0  0  0  0  0  0
    6.9000   13.7890   -2.2750 H   0  0  0  0  0  0  0  0  0  0  0  0
    4.3760   14.5860   -2.4350 H   0  0  0  0  0  0  0  0  0  0  0  0
  1 30  1  0  0  0  0
  1  2  2  0  0  0  0
  2 31  1  0  0  0  0
  3  1  1  0  0  0  0
  4  2  1  0  0  0  0
  4 33  1  0  0  0  0
  5  3  2  0  0  0  0
  5  6  1  0  0  0  0
  6  4  2  0  0  0  0
  7  6  1  0  0  0  0
  7  8  2  0  0  0  0
  9  7  1  0  0  0  0
 10  8  1  0  0  0  0
 10 34  1  0  0  0  0
 11  9  2  0  0  0  0
 12  9  1  0  0  0  0
 12 13  1  0  0  0  0
 13 10  2  0  0  0  0
 14 15  1  0  0  0  0
 14 11  1  0  0  0  0
 15 12  2  0  0  0  0
 16 13  1  1  0  0  0
 16 18  1  0  0  0  0
 17 16  1  0  0  0  0
 18 20  1  0  0  0  0
 19 22  1  1  0  0  0
 19 17  1  0  0  0  0
 19 21  1  0  0  0  0
 20 23  2  0  0  0  0
 21 18  2  0  0  0  0
 21 24  1  0  0  0  0
 23 35  1  0  0  0  0
 24 27  2  0  0  0  0
 25 36  1  0  0  0  0
 25 22  2  0  0  0  0
 26 22  1  0  0  0  0
 27 37  1  0  0  0  0
 27 23  1  0  0  0  0
 28 25  1  0  0  0  0
 29 28  2  0  0  0  0
 29 26  1  0  0  0  0
 32  3  1  0  0  0  0
 38 28  1  0  0  0  0
 39 29  1  0  0  0  0
M  END
$$$$
scan_sander_basal/min_pdbs/min_pdb_C169_210.pdb
 OpenBabel09051718453D

 39 44  0  0  1  0  0  0  0  0999 V2000
    0.3820   -0.1530    0.4390 C   0  0  0  0  0  0  0  0  0  0  0  0
    1.6110    0.1070    1.0580 C   0  0  0  0  0  0  0  0  0  0  0  0
   -0.2640    0.8900   -0.2390 C   0  0  0  0  0  0  0  0  0  0  0  0
    2.1380    1.4030    0.9720 C   0  0  0  0  0  0  0  0  0  0  0  0
    0.2500    2.1310   -0.3170 N   0  0  0  0  0  0  0  0  0  0  0  0
    1.4330    2.4190    0.2720 C   0  0  0  0  0  0  0  0  0  0  0  0
    1.9800    3.8250    0.1540 C   0  0  0  0  0  0  0  0  0  0  0  0
    3.3140    3.9540    0.3260 N   0  0  0  0  0  0  0  0  0  0  0  0
    1.2050    4.9910   -0.0960 C   0  0  0  0  0  0  0  0  0  0  0  0
    3.9070    5.1620    0.2450 C   0  0  0  0  0  0  0  0  0  0  0  0
   -0.1400    5.0160   -0.2350 N   0  0  0  0  0  0  0  0  0  0  0  0
    1.8200    6.2390   -0.1860 C   0  0  0  0  0  0  0  0  0  0  0  0
    3.2250    6.3710   -0.0230 C   0  0  0  0  0  0  0  0  0  0  0  0
   -0.5300    6.5800   -0.4810 S   0  0  0  0  0  0  0  0  0  0  0  0
    0.9560    7.2560   -0.4030 N   0  0  0  0  0  0  0  0  0  0  0  0
    3.9550    7.6700   -0.0880 C   0  0  1  0  0  0  0  0  0  0  0  0
    3.1930    9.1630   -0.6990 B   0  0  0  0  0  0  0  0  0  0  0  0
    5.3420    7.9320    0.3290 C   0  0  0  0  0  0  0  0  0  0  0  0
    4.7540    9.9730   -0.6830 C   0  0  0  0  0  0  0  0  0  0  0  0
    6.0950    7.0970    1.0770 N   0  0  0  0  0  0  0  0  0  0  0  0
    5.7950    9.2090   -0.0150 C   0  0  0  0  0  0  0  0  0  0  0  0
    4.9500   11.3520   -1.0480 C   0  0  0  0  0  0  0  0  0  0  0  0
    7.3150    7.5500    1.4360 C   0  0  0  0  0  0  0  0  0  0  0  0
    7.0000    9.6860    0.3630 N   0  0  0  0  0  0  0  0  0  0  0  0
    6.1250   11.7990   -1.6020 C   0  0  0  0  0  0  0  0  0  0  0  0
    3.6730   12.5580   -1.1390 S   0  0  0  0  0  0  0  0  0  0  0  0
    7.7670    8.8370    1.0780 C   0  0  0  0  0  0  0  0  0  0  0  0
    6.0470   13.1590   -2.0190 C   0  0  0  0  0  0  0  0  0  0  0  0
    4.8080   13.7200   -1.8210 C   0  0  0  0  0  0  0  0  0  0  0  0
   -0.0630   -1.1420    0.4810 H   0  0  0  0  0  0  0  0  0  0  0  0
    2.1430   -0.6760    1.5930 H   0  0  0  0  0  0  0  0  0  0  0  0
   -1.2210    0.7300   -0.7340 H   0  0  0  0  0  0  0  0  0  0  0  0
    3.0880    1.6250    1.4480 H   0  0  0  0  0  0  0  0  0  0  0  0
    4.9850    5.1210    0.3520 H   0  0  0  0  0  0  0  0  0  0  0  0
    7.9350    6.8770    2.0270 H   0  0  0  0  0  0  0  0  0  0  0  0
    7.0170   11.1970   -1.7300 H   0  0  0  0  0  0  0  0  0  0  0  0
    8.7480    9.1970    1.3830 H   0  0  0  0  0  0  0  0  0  0  0  0
    6.8840   13.6890   -2.4620 H   0  0  0  0  0  0  0  0  0  0  0  0
    4.4770   14.7250   -2.0490 H   0  0  0  0  0  0  0  0  0  0  0  0
  1 30  1  0  0  0  0
  1  2  2  0  0  0  0
  2 31  1  0  0  0  0
  3  1  1  0  0  0  0
  4  2  1  0  0  0  0
  4 33  1  0  0  0  0
  5  3  2  0  0  0  0
  5  6  1  0  0  0  0
  6  4  2  0  0  0  0
  7  6  1  0  0  0  0
  7  8  2  0  0  0  0
  9  7  1  0  0  0  0
 10  8  1  0  0  0  0
 10 34  1  0  0  0  0
 11  9  2  0  0  0  0
 12  9  1  0  0  0  0
 12 13  1  0  0  0  0
 13 10  2  0  0  0  0
 14 15  1  0  0  0  0
 14 11  1  0  0  0  0
 15 12  2  0  0  0  0
 16 13  1  1  0  0  0
 16 18  1  0  0  0  0
 17 19  2  0  0  0  0
 17 16  1  0  0  0  0
 18 20  1  0  0  0  0
 19 21  1  0  0  0  0
 20 23  2  0  0  0  0
 21 18  2  0  0  0  0
 21 24  1  0  0  0  0
 22 19  1  0  0  0  0
 23 35  1  0  0  0  0
 24 27  2  0  0  0  0
 25 22  2  0  0  0  0
 26 22  1  0  0  0  0
 27 37  1  0  0  0  0
 27 23  1  0  0  0  0
 28 29  2  0  0  0  0
 28 25  1  0  0  0  0
 29 26  1  0  0  0  0
 32  3  1  0  0  0  0
 36 25  1  0  0  0  0
 38 28  1  0  0  0  0
 39 29  1  0  0  0  0
M  END
$$$$
scan_sander_basal/min_pdbs/min_pdb_C169_225.pdb
 OpenBabel09051718453D

 39 44  0  0  1  0  0  0  0  0999 V2000
    0.3870   -0.1550    0.4690 C   0  0  0  0  0  0  0  0  0  0  0  0
    1.6000    0.1180    1.1140 C   0  0  0  0  0  0  0  0  0  0  0  0
   -0.2440    0.8750   -0.2410 C   0  0  0  0  0  0  0  0  0  0  0  0
    2.1270    1.4140    1.0180 C   0  0  0  0  0  0  0  0  0  0  0  0
    0.2690    2.1160   -0.3290 N   0  0  0  0  0  0  0  0  0  0  0  0
    1.4370    2.4170    0.2830 C   0  0  0  0  0  0  0  0  0  0  0  0
    1.9840    3.8210    0.1540 C   0  0  0  0  0  0  0  0  0  0  0  0
    3.3140    3.9570    0.3550 N   0  0  0  0  0  0  0  0  0  0  0  0
    1.2130    4.9800   -0.1350 C   0  0  0  0  0  0  0  0  0  0  0  0
    3.9060    5.1630    0.2660 C   0  0  0  0  0  0  0  0  0  0  0  0
   -0.1280    5.0000   -0.3050 N   0  0  0  0  0  0  0  0  0  0  0  0
    1.8280    6.2280   -0.2340 C   0  0  0  0  0  0  0  0  0  0  0  0
    3.2290    6.3670   -0.0410 C   0  0  0  0  0  0  0  0  0  0  0  0
   -0.5150    6.5590   -0.5890 S   0  0  0  0  0  0  0  0  0  0  0  0
    0.9670    7.2380   -0.4880 N   0  0  0  0  0  0  0  0  0  0  0  0
    3.9590    7.6670   -0.1150 C   0  0  1  0  0  0  0  0  0  0  0  0
    3.2030    9.1450   -0.7750 B   0  0  0  0  0  0  0  0  0  0  0  0
    5.3370    7.9410    0.3290 C   0  0  0  0  0  0  0  0  0  0  0  0
    4.7450    9.9790   -0.6770 C   0  0  0  0  0  0  0  0  0  0  0  0
    6.0990    7.1070    1.0680 N   0  0  0  0  0  0  0  0  0  0  0  0
    5.7800    9.2240   -0.0010 C   0  0  0  0  0  0  0  0  0  0  0  0
    4.9610   11.3580   -1.0110 C   0  0  0  0  0  0  0  0  0  0  0  0
    7.3160    7.5710    1.4290 C   0  0  0  0  0  0  0  0  0  0  0  0
    6.9830    9.7120    0.3670 N   0  0  0  0  0  0  0  0  0  0  0  0
    6.0410   11.7350   -1.7680 C   0  0  0  0  0  0  0  0  0  0  0  0
    3.8150   12.6660   -0.7660 S   0  0  0  0  0  0  0  0  0  0  0  0
    7.7570    8.8630    1.0770 C   0  0  0  0  0  0  0  0  0  0  0  0
    6.0060   13.1200   -2.1020 C   0  0  0  0  0  0  0  0  0  0  0  0
    4.8880   13.7670   -1.6290 C   0  0  0  0  0  0  0  0  0  0  0  0
   -0.0570   -1.1450    0.5170 H   0  0  0  0  0  0  0  0  0  0  0  0
    2.1210   -0.6540    1.6740 H   0  0  0  0  0  0  0  0  0  0  0  0
   -1.1890    0.7030   -0.7570 H   0  0  0  0  0  0  0  0  0  0  0  0
    3.0650    1.6470    1.5120 H   0  0  0  0  0  0  0  0  0  0  0  0
    4.9810    5.1250    0.4000 H   0  0  0  0  0  0  0  0  0  0  0  0
    7.9430    6.9000    2.0150 H   0  0  0  0  0  0  0  0  0  0  0  0
    6.8340   11.0640   -2.0810 H   0  0  0  0  0  0  0  0  0  0  0  0
    8.7370    9.2290    1.3800 H   0  0  0  0  0  0  0  0  0  0  0  0
    6.7850   13.6070   -2.6810 H   0  0  0  0  0  0  0  0  0  0  0  0
    4.6130   14.8070   -1.7410 H   0  0  0  0  0  0  0  0  0  0  0  0
  1 30  1  0  0  0  0
  1  2  2  0  0  0  0
  2 31  1  0  0  0  0
  3  1  1  0  0  0  0
  4  2  1  0  0  0  0
  4 33  1  0  0  0  0
  5  3  2  0  0  0  0
  5  6  1  0  0  0  0
  6  4  2  0  0  0  0
  7  6  1  0  0  0  0
  7  8  2  0  0  0  0
  9  7  1  0  0  0  0
 10  8  1  0  0  0  0
 10 34  1  0  0  0  0
 11  9  2  0  0  0  0
 12  9  1  0  0  0  0
 12 13  1  0  0  0  0
 13 10  2  0  0  0  0
 14 15  1  0  0  0  0
 14 11  1  0  0  0  0
 15 12  2  0  0  0  0
 16 13  1  1  0  0  0
 16 18  1  0  0  0  0
 17 19  2  0  0  0  0
 17 16  1  0  0  0  0
 18 20  1  0  0  0  0
 19 21  1  0  0  0  0
 20 23  2  0  0  0  0
 21 18  2  0  0  0  0
 21 24  1  0  0  0  0
 22 26  1  0  0  0  0
 22 19  1  0  0  0  0
 23 35  1  0  0  0  0
 24 27  2  0  0  0  0
 25 22  2  0  0  0  0
 27 37  1  0  0  0  0
 27 23  1  0  0  0  0
 28 25  1  0  0  0  0
 28 29  2  0  0  0  0
 29 26  1  0  0  0  0
 32  3  1  0  0  0  0
 36 25  1  0  0  0  0
 38 28  1  0  0  0  0
 39 29  1  0  0  0  0
M  END
$$$$
scan_sander_basal/min_pdbs/min_pdb_C169_240.pdb
 OpenBabel09051718453D

 39 44  0  0  1  0  0  0  0  0999 V2000
    0.3990   -0.1580    0.4820 C   0  0  0  0  0  0  0  0  0  0  0  0
    1.6010    0.1250    1.1430 C   0  0  0  0  0  0  0  0  0  0  0  0
   -0.2240    0.8650   -0.2480 C   0  0  0  0  0  0  0  0  0  0  0  0
    2.1260    1.4210    1.0430 C   0  0  0  0  0  0  0  0  0  0  0  0
    0.2880    2.1060   -0.3390 N   0  0  0  0  0  0  0  0  0  0  0  0
    1.4450    2.4150    0.2890 C   0  0  0  0  0  0  0  0  0  0  0  0
    1.9920    3.8200    0.1560 C   0  0  0  0  0  0  0  0  0  0  0  0
    3.3170    3.9600    0.3770 N   0  0  0  0  0  0  0  0  0  0  0  0
    1.2230    4.9750   -0.1560 C   0  0  0  0  0  0  0  0  0  0  0  0
    3.9090    5.1670    0.2860 C   0  0  0  0  0  0  0  0  0  0  0  0
   -0.1160    4.9900   -0.3460 N   0  0  0  0  0  0  0  0  0  0  0  0
    1.8370    6.2230   -0.2560 C   0  0  0  0  0  0  0  0  0  0  0  0
    3.2350    6.3660   -0.0430 C   0  0  0  0  0  0  0  0  0  0  0  0
   -0.5020    6.5440   -0.6500 S   0  0  0  0  0  0  0  0  0  0  0  0
    0.9770    7.2280   -0.5330 N   0  0  0  0  0  0  0  0  0  0  0  0
    3.9620    7.6680   -0.1190 C   0  0  1  0  0  0  0  0  0  0  0  0
    3.2090    9.1380   -0.8060 B   0  0  0  0  0  0  0  0  0  0  0  0
    5.3340    7.9510    0.3430 C   0  0  0  0  0  0  0  0  0  0  0  0
    4.7340    9.9910   -0.6470 C   0  0  0  0  0  0  0  0  0  0  0  0
    6.1040    7.1160    1.0720 N   0  0  0  0  0  0  0  0  0  0  0  0
    5.7670    9.2410    0.0310 C   0  0  0  0  0  0  0  0  0  0  0  0
    4.9700   11.3610   -0.9910 C   0  0  0  0  0  0  0  0  0  0  0  0
    7.3170    7.5870    1.4380 C   0  0  0  0  0  0  0  0  0  0  0  0
    6.9670    9.7360    0.3960 N   0  0  0  0  0  0  0  0  0  0  0  0
    5.9070   11.6820   -1.9390 C   0  0  0  0  0  0  0  0  0  0  0  0
    4.0410   12.7450   -0.4430 S   0  0  0  0  0  0  0  0  0  0  0  0
    7.7480    8.8870    1.0970 C   0  0  0  0  0  0  0  0  0  0  0  0
    5.9310   13.0810   -2.2110 C   0  0  0  0  0  0  0  0  0  0  0  0
    5.0000   13.7930   -1.4900 C   0  0  0  0  0  0  0  0  0  0  0  0
   -0.0440   -1.1480    0.5320 H   0  0  0  0  0  0  0  0  0  0  0  0
    2.1140   -0.6410    1.7180 H   0  0  0  0  0  0  0  0  0  0  0  0
   -1.1600    0.6870   -0.7770 H   0  0  0  0  0  0  0  0  0  0  0  0
    3.0560    1.6600    1.5500 H   0  0  0  0  0  0  0  0  0  0  0  0
    4.9810    5.1310    0.4370 H   0  0  0  0  0  0  0  0  0  0  0  0
    7.9510    6.9160    2.0160 H   0  0  0  0  0  0  0  0  0  0  0  0
    6.5580   10.9630   -2.4230 H   0  0  0  0  0  0  0  0  0  0  0  0
    8.7260    9.2570    1.4020 H   0  0  0  0  0  0  0  0  0  0  0  0
    6.6140   13.5310   -2.9240 H   0  0  0  0  0  0  0  0  0  0  0  0
    4.8060   14.8570   -1.5050 H   0  0  0  0  0  0  0  0  0  0  0  0
  1 30  1  0  0  0  0
  1  2  2  0  0  0  0
  2 31  1  0  0  0  0
  3  1  1  0  0  0  0
  4  2  1  0  0  0  0
  4 33  1  0  0  0  0
  5  3  2  0  0  0  0
  5  6  1  0  0  0  0
  6  4  2  0  0  0  0
  7  6  1  0  0  0  0
  7  8  2  0  0  0  0
  9  7  1  0  0  0  0
 10  8  1  0  0  0  0
 10 34  1  0  0  0  0
 11  9  2  0  0  0  0
 12  9  1  0  0  0  0
 12 13  1  0  0  0  0
 13 10  2  0  0  0  0
 14 15  1  0  0  0  0
 14 11  1  0  0  0  0
 15 12  2  0  0  0  0
 16 13  1  1  0  0  0
 16 18  1  0  0  0  0
 17 19  2  0  0  0  0
 17 16  1  0  0  0  0
 18 20  1  0  0  0  0
 19 21  1  0  0  0  0
 20 23  2  0  0  0  0
 21 18  2  0  0  0  0
 21 24  1  0  0  0  0
 22 19  1  0  0  0  0
 22 26  1  0  0  0  0
 23 35  1  0  0  0  0
 24 27  2  0  0  0  0
 25 22  2  0  0  0  0
 27 37  1  0  0  0  0
 27 23  1  0  0  0  0
 28 25  1  0  0  0  0
 28 29  2  0  0  0  0
 29 26  1  0  0  0  0
 32  3  1  0  0  0  0
 36 25  1  0  0  0  0
 38 28  1  0  0  0  0
 39 29  1  0  0  0  0
M  END
$$$$
scan_sander_basal/min_pdbs/min_pdb_C169_255.pdb
 OpenBabel09051718453D

 39 44  0  0  1  0  0  0  0  0999 V2000
    0.4130   -0.1590    0.4860 C   0  0  0  0  0  0  0  0  0  0  0  0
    1.6070    0.1290    1.1590 C   0  0  0  0  0  0  0  0  0  0  0  0
   -0.2030    0.8580   -0.2570 C   0  0  0  0  0  0  0  0  0  0  0  0
    2.1310    1.4260    1.0590 C   0  0  0  0  0  0  0  0  0  0  0  0
    0.3080    2.1000   -0.3480 N   0  0  0  0  0  0  0  0  0  0  0  0
    1.4570    2.4140    0.2910 C   0  0  0  0  0  0  0  0  0  0  0  0
    2.0030    3.8190    0.1580 C   0  0  0  0  0  0  0  0  0  0  0  0
    3.3250    3.9640    0.3930 N   0  0  0  0  0  0  0  0  0  0  0  0
    1.2360    4.9710   -0.1690 C   0  0  0  0  0  0  0  0  0  0  0  0
    3.9160    5.1710    0.3030 C   0  0  0  0  0  0  0  0  0  0  0  0
   -0.1010    4.9830   -0.3750 N   0  0  0  0  0  0  0  0  0  0  0  0
    1.8480    6.2200   -0.2680 C   0  0  0  0  0  0  0  0  0  0  0  0
    3.2430    6.3680   -0.0400 C   0  0  0  0  0  0  0  0  0  0  0  0
   -0.4860    6.5350   -0.6910 S   0  0  0  0  0  0  0  0  0  0  0  0
    0.9900    7.2230   -0.5600 N   0  0  0  0  0  0  0  0  0  0  0  0
    3.9690    7.6710   -0.1130 C   0  0  1  0  0  0  0  0  0  0  0  0
    3.2190    9.1360   -0.8150 B   0  0  0  0  0  0  0  0  0  0  0  0
    5.3350    7.9600    0.3650 C   0  0  0  0  0  0  0  0  0  0  0  0
    4.7320   10.0010   -0.6150 C   0  0  0  0  0  0  0  0  0  0  0  0
    6.1080    7.1240    1.0900 N   0  0  0  0  0  0  0  0  0  0  0  0
    5.7620    9.2540    0.0650 C   0  0  0  0  0  0  0  0  0  0  0  0
    4.9840   11.3620   -0.9790 C   0  0  0  0  0  0  0  0  0  0  0  0
    7.3170    7.6010    1.4640 C   0  0  0  0  0  0  0  0  0  0  0  0
    6.9580    9.7550    0.4360 N   0  0  0  0  0  0  0  0  0  0  0  0
    5.7250   11.6470   -2.0940 C   0  0  0  0  0  0  0  0  0  0  0  0
    4.3400   12.7890   -0.1880 S   0  0  0  0  0  0  0  0  0  0  0  0
    7.7410    8.9060    1.1340 C   0  0  0  0  0  0  0  0  0  0  0  0
    5.8170   13.0500   -2.3250 C   0  0  0  0  0  0  0  0  0  0  0  0
    5.1350   13.8010   -1.3960 C   0  0  0  0  0  0  0  0  0  0  0  0
   -0.0280   -1.1500    0.5360 H   0  0  0  0  0  0  0  0  0  0  0  0
    2.1150   -0.6330    1.7440 H   0  0  0  0  0  0  0  0  0  0  0  0
   -1.1320    0.6760   -0.7950 H   0  0  0  0  0  0  0  0  0  0  0  0
    3.0550    1.6690    1.5750 H   0  0  0  0  0  0  0  0  0  0  0  0
    4.9860    5.1370    0.4670 H   0  0  0  0  0  0  0  0  0  0  0  0
    7.9520    6.9290    2.0390 H   0  0  0  0  0  0  0  0  0  0  0  0
    6.1920   10.8990   -2.7260 H   0  0  0  0  0  0  0  0  0  0  0  0
    8.7160    9.2780    1.4450 H   0  0  0  0  0  0  0  0  0  0  0  0
    6.3710   13.4760   -3.1560 H   0  0  0  0  0  0  0  0  0  0  0  0
    5.0420   14.8780   -1.3360 H   0  0  0  0  0  0  0  0  0  0  0  0
  1 30  1  0  0  0  0
  1  2  2  0  0  0  0
  2 31  1  0  0  0  0
  3  1  1  0  0  0  0
  4  2  1  0  0  0  0
  4 33  1  0  0  0  0
  5  3  2  0  0  0  0
  5  6  1  0  0  0  0
  6  4  2  0  0  0  0
  7  6  1  0  0  0  0
  7  8  2  0  0  0  0
  9  7  1  0  0  0  0
 10  8  1  0  0  0  0
 10 34  1  0  0  0  0
 11  9  2  0  0  0  0
 12  9  1  0  0  0  0
 12 13  1  0  0  0  0
 13 10  2  0  0  0  0
 14 15  1  0  0  0  0
 14 11  1  0  0  0  0
 15 12  2  0  0  0  0
 16 13  1  1  0  0  0
 16 18  1  0  0  0  0
 17 19  2  0  0  0  0
 17 16  1  0  0  0  0
 18 20  1  0  0  0  0
 19 21  1  0  0  0  0
 20 23  2  0  0  0  0
 21 18  2  0  0  0  0
 21 24  1  0  0  0  0
 22 19  1  0  0  0  0
 22 26  1  0  0  0  0
 23 35  1  0  0  0  0
 24 27  2  0  0  0  0
 25 22  2  0  0  0  0
 27 37  1  0  0  0  0
 27 23  1  0  0  0  0
 28 25  1  0  0  0  0
 28 29  2  0  0  0  0
 29 39  1  0  0  0  0
 29 26  1  0  0  0  0
 32  3  1  0  0  0  0
 36 25  1  0  0  0  0
 38 28  1  0  0  0  0
M  END
$$$$
scan_sander_basal/min_pdbs/min_pdb_C169_270.pdb
 OpenBabel09051718453D

 39 44  0  0  1  0  0  0  0  0999 V2000
    0.4430   -0.1650    0.4530 C   0  0  0  0  0  0  0  0  0  0  0  0
    1.6300    0.1240    1.1380 C   0  0  0  0  0  0  0  0  0  0  0  0
   -0.1720    0.8550   -0.2870 C   0  0  0  0  0  0  0  0  0  0  0  0
    2.1480    1.4240    1.0510 C   0  0  0  0  0  0  0  0  0  0  0  0
    0.3330    2.1000   -0.3660 N   0  0  0  0  0  0  0  0  0  0  0  0
    1.4760    2.4150    0.2850 C   0  0  0  0  0  0  0  0  0  0  0  0
    2.0170    3.8230    0.1650 C   0  0  0  0  0  0  0  0  0  0  0  0
    3.3360    3.9710    0.4110 N   0  0  0  0  0  0  0  0  0  0  0  0
    1.2470    4.9740   -0.1600 C   0  0  0  0  0  0  0  0  0  0  0  0
    3.9230    5.1820    0.3320 C   0  0  0  0  0  0  0  0  0  0  0  0
   -0.0880    4.9810   -0.3750 N   0  0  0  0  0  0  0  0  0  0  0  0
    1.8560    6.2250   -0.2500 C   0  0  0  0  0  0  0  0  0  0  0  0
    3.2490    6.3770   -0.0120 C   0  0  0  0  0  0  0  0  0  0  0  0
   -0.4770    6.5340   -0.6860 S   0  0  0  0  0  0  0  0  0  0  0  0
    0.9960    7.2260   -0.5420 N   0  0  0  0  0  0  0  0  0  0  0  0
    3.9710    7.6830   -0.0770 C   0  0  1  0  0  0  0  0  0  0  0  0
    3.2200    9.1470   -0.7810 B   0  0  0  0  0  0  0  0  0  0  0  0
    5.3330    7.9740    0.4090 C   0  0  0  0  0  0  0  0  0  0  0  0
    4.7310   10.0130   -0.5740 C   0  0  0  0  0  0  0  0  0  0  0  0
    6.1040    7.1400    1.1390 N   0  0  0  0  0  0  0  0  0  0  0  0
    5.7590    9.2690    0.1110 C   0  0  0  0  0  0  0  0  0  0  0  0
    5.0020   11.3600   -0.9740 C   0  0  0  0  0  0  0  0  0  0  0  0
    7.3100    7.6190    1.5170 C   0  0  0  0  0  0  0  0  0  0  0  0
    6.9530    9.7730    0.4860 N   0  0  0  0  0  0  0  0  0  0  0  0
    5.4990   11.6140   -2.2240 C   0  0  0  0  0  0  0  0  0  0  0  0
    4.7130   12.8090   -0.0290 S   0  0  0  0  0  0  0  0  0  0  0  0
    7.7340    8.9250    1.1880 C   0  0  0  0  0  0  0  0  0  0  0  0
    5.6730   13.0100   -2.4500 C   0  0  0  0  0  0  0  0  0  0  0  0
    5.3000   13.7870   -1.3770 C   0  0  0  0  0  0  0  0  0  0  0  0
    0.0060   -1.1570    0.4920 H   0  0  0  0  0  0  0  0  0  0  0  0
    2.1370   -0.6400    1.7220 H   0  0  0  0  0  0  0  0  0  0  0  0
   -1.0960    0.6720   -0.8340 H   0  0  0  0  0  0  0  0  0  0  0  0
    3.0660    1.6680    1.5770 H   0  0  0  0  0  0  0  0  0  0  0  0
    4.9920    5.1510    0.5040 H   0  0  0  0  0  0  0  0  0  0  0  0
    7.9450    6.9490    2.0960 H   0  0  0  0  0  0  0  0  0  0  0  0
    5.7370   10.8490   -2.9550 H   0  0  0  0  0  0  0  0  0  0  0  0
    8.7070    9.2990    1.5030 H   0  0  0  0  0  0  0  0  0  0  0  0
    6.0620   13.4130   -3.3790 H   0  0  0  0  0  0  0  0  0  0  0  0
    5.3310   14.8640   -1.2820 H   0  0  0  0  0  0  0  0  0  0  0  0
  1 30  1  0  0  0  0
  1  2  2  0  0  0  0
  2 31  1  0  0  0  0
  3  1  1  0  0  0  0
  4  2  1  0  0  0  0
  4 33  1  0  0  0  0
  5  3  2  0  0  0  0
  5  6  1  0  0  0  0
  6  4  2  0  0  0  0
  7  6  1  0  0  0  0
  7  8  2  0  0  0  0
  9  7  1  0  0  0  0
 10  8  1  0  0  0  0
 10 34  1  0  0  0  0
 11  9  2  0  0  0  0
 12  9  1  0  0  0  0
 12 13  1  0  0  0  0
 13 10  2  0  0  0  0
 14 15  1  0  0  0  0
 14 11  1  0  0  0  0
 15 12  2  0  0  0  0
 16 13  1  1  0  0  0
 16 18  1  0  0  0  0
 17 19  2  0  0  0  0
 17 16  1  0  0  0  0
 18 20  1  0  0  0  0
 19 21  1  0  0  0  0
 20 23  2  0  0  0  0
 21 18  2  0  0  0  0
 21 24  1  0  0  0  0
 22 19  1  0  0  0  0
 22 26  1  0  0  0  0
 23 35  1  0  0  0  0
 24 27  2  0  0  0  0
 25 22  2  0  0  0  0
 27 37  1  0  0  0  0
 27 23  1  0  0  0  0
 28 25  1  0  0  0  0
 28 29  2  0  0  0  0
 29 39  1  0  0  0  0
 29 26  1  0  0  0  0
 32  3  1  0  0  0  0
 36 25  1  0  0  0  0
 38 28  1  0  0  0  0
M  END
$$$$
scan_sander_basal/min_pdbs/min_pdb_C169_285.pdb
 OpenBabel09051718453D

 39 44  0  0  1  0  0  0  0  0999 V2000
    0.4520   -0.1630    0.4630 C   0  0  0  0  0  0  0  0  0  0  0  0
    1.6270    0.1320    1.1650 C   0  0  0  0  0  0  0  0  0  0  0  0
   -0.1490    0.8500   -0.2990 C   0  0  0  0  0  0  0  0  0  0  0  0
    2.1490    1.4300    1.0730 C   0  0  0  0  0  0  0  0  0  0  0  0
    0.3600    2.0930   -0.3820 N   0  0  0  0  0  0  0  0  0  0  0  0
    1.4920    2.4130    0.2850 C   0  0  0  0  0  0  0  0  0  0  0  0
    2.0360    3.8200    0.1590 C   0  0  0  0  0  0  0  0  0  0  0  0
    3.3520    3.9690    0.4270 N   0  0  0  0  0  0  0  0  0  0  0  0
    1.2740    4.9680   -0.1910 C   0  0  0  0  0  0  0  0  0  0  0  0
    3.9410    5.1780    0.3460 C   0  0  0  0  0  0  0  0  0  0  0  0
   -0.0570    4.9740   -0.4300 N   0  0  0  0  0  0  0  0  0  0  0  0
    1.8860    6.2180   -0.2820 C   0  0  0  0  0  0  0  0  0  0  0  0
    3.2750    6.3700   -0.0200 C   0  0  0  0  0  0  0  0  0  0  0  0
   -0.4390    6.5240   -0.7630 S   0  0  0  0  0  0  0  0  0  0  0  0
    1.0320    7.2160   -0.6000 N   0  0  0  0  0  0  0  0  0  0  0  0
    3.9980    7.6750   -0.0840 C   0  0  1  0  0  0  0  0  0  0  0  0
    3.2620    9.1340   -0.8150 B   0  0  0  0  0  0  0  0  0  0  0  0
    5.3520    7.9710    0.4250 C   0  0  0  0  0  0  0  0  0  0  0  0
    4.7650   10.0050   -0.5780 C   0  0  0  0  0  0  0  0  0  0  0  0
    6.1130    7.1400    1.1680 N   0  0  0  0  0  0  0  0  0  0  0  0
    5.7820    9.2650    0.1280 C   0  0  0  0  0  0  0  0  0  0  0  0
    5.0380   11.3520   -0.9750 C   0  0  0  0  0  0  0  0  0  0  0  0
    7.3130    7.6210    1.5630 C   0  0  0  0  0  0  0  0  0  0  0  0
    6.9700    9.7700    0.5190 N   0  0  0  0  0  0  0  0  0  0  0  0
    5.2620   11.6420   -2.2940 C   0  0  0  0  0  0  0  0  0  0  0  0
    5.0750   12.7650    0.0660 S   0  0  0  0  0  0  0  0  0  0  0  0
    7.7410    8.9250    1.2360 C   0  0  0  0  0  0  0  0  0  0  0  0
    5.4840   13.0350   -2.4990 C   0  0  0  0  0  0  0  0  0  0  0  0
    5.4180   13.7750   -1.3410 C   0  0  0  0  0  0  0  0  0  0  0  0
    0.0130   -1.1550    0.5050 H   0  0  0  0  0  0  0  0  0  0  0  0
    2.1230   -0.6270    1.7660 H   0  0  0  0  0  0  0  0  0  0  0  0
   -1.0630    0.6620   -0.8610 H   0  0  0  0  0  0  0  0  0  0  0  0
    3.0590    1.6780    1.6120 H   0  0  0  0  0  0  0  0  0  0  0  0
    5.0070    5.1480    0.5380 H   0  0  0  0  0  0  0  0  0  0  0  0
    7.9390    6.9530    2.1530 H   0  0  0  0  0  0  0  0  0  0  0  0
    5.2740   10.9060   -3.0900 H   0  0  0  0  0  0  0  0  0  0  0  0
    8.7100    9.3010    1.5630 H   0  0  0  0  0  0  0  0  0  0  0  0
    5.6850   13.4630   -3.4770 H   0  0  0  0  0  0  0  0  0  0  0  0
    5.5490   14.8410   -1.2140 H   0  0  0  0  0  0  0  0  0  0  0  0
  1 30  1  0  0  0  0
  1  2  2  0  0  0  0
  2 31  1  0  0  0  0
  3  1  1  0  0  0  0
  4  2  1  0  0  0  0
  4 33  1  0  0  0  0
  5  3  2  0  0  0  0
  5  6  1  0  0  0  0
  6  4  2  0  0  0  0
  7  6  1  0  0  0  0
  7  8  2  0  0  0  0
  9  7  1  0  0  0  0
 10  8  1  0  0  0  0
 10 34  1  0  0  0  0
 11  9  2  0  0  0  0
 12  9  1  0  0  0  0
 12 13  1  0  0  0  0
 13 10  2  0  0  0  0
 14 15  1  0  0  0  0
 14 11  1  0  0  0  0
 15 12  2  0  0  0  0
 16 13  1  1  0  0  0
 16 18  1  0  0  0  0
 17 19  2  0  0  0  0
 17 16  1  0  0  0  0
 18 20  1  0  0  0  0
 19 21  1  0  0  0  0
 20 23  2  0  0  0  0
 21 18  2  0  0  0  0
 21 24  1  0  0  0  0
 22 19  1  0  0  0  0
 22 26  1  0  0  0  0
 23 35  1  0  0  0  0
 24 27  2  0  0  0  0
 25 22  2  0  0  0  0
 27 37  1  0  0  0  0
 27 23  1  0  0  0  0
 28 25  1  0  0  0  0
 28 29  2  0  0  0  0
 29 39  1  0  0  0  0
 29 26  1  0  0  0  0
 32  3  1  0  0  0  0
 36 25  1  0  0  0  0
 38 28  1  0  0  0  0
M  END
$$$$
scan_sander_basal/min_pdbs/min_pdb_C169_300.pdb
 OpenBabel09051718453D

 39 44  0  0  1  0  0  0  0  0999 V2000
    0.4690   -0.1640    0.4590 C   0  0  0  0  0  0  0  0  0  0  0  0
    1.6320    0.1350    1.1790 C   0  0  0  0  0  0  0  0  0  0  0  0
   -0.1180    0.8450   -0.3190 C   0  0  0  0  0  0  0  0  0  0  0  0
    2.1560    1.4320    1.0890 C   0  0  0  0  0  0  0  0  0  0  0  0
    0.3920    2.0870   -0.4010 N   0  0  0  0  0  0  0  0  0  0  0  0
    1.5130    2.4110    0.2840 C   0  0  0  0  0  0  0  0  0  0  0  0
    2.0600    3.8160    0.1590 C   0  0  0  0  0  0  0  0  0  0  0  0
    3.3710    3.9670    0.4490 N   0  0  0  0  0  0  0  0  0  0  0  0
    1.3050    4.9620   -0.2120 C   0  0  0  0  0  0  0  0  0  0  0  0
    3.9620    5.1750    0.3680 C   0  0  0  0  0  0  0  0  0  0  0  0
   -0.0220    4.9690   -0.4730 N   0  0  0  0  0  0  0  0  0  0  0  0
    1.9190    6.2110   -0.3020 C   0  0  0  0  0  0  0  0  0  0  0  0
    3.3030    6.3650   -0.0190 C   0  0  0  0  0  0  0  0  0  0  0  0
   -0.3970    6.5160   -0.8230 S   0  0  0  0  0  0  0  0  0  0  0  0
    1.0710    7.2080   -0.6420 N   0  0  0  0  0  0  0  0  0  0  0  0
    4.0300    7.6690   -0.0830 C   0  0  1  0  0  0  0  0  0  0  0  0
    3.3070    9.1200   -0.8380 B   0  0  0  0  0  0  0  0  0  0  0  0
    5.3740    7.9680    0.4450 C   0  0  0  0  0  0  0  0  0  0  0  0
    4.8080    9.9950   -0.5900 C   0  0  0  0  0  0  0  0  0  0  0  0
    6.1240    7.1420    1.2040 N   0  0  0  0  0  0  0  0  0  0  0  0
    5.8120    9.2590    0.1420 C   0  0  0  0  0  0  0  0  0  0  0  0
    5.0770   11.3430   -0.9900 C   0  0  0  0  0  0  0  0  0  0  0  0
    7.3210    7.6210    1.6090 C   0  0  0  0  0  0  0  0  0  0  0  0
    7.0000    9.7600    0.5380 N   0  0  0  0  0  0  0  0  0  0  0  0
    5.0030   11.6850   -2.3140 C   0  0  0  0  0  0  0  0  0  0  0  0
    5.4430   12.7040    0.0580 S   0  0  0  0  0  0  0  0  0  0  0  0
    7.7590    8.9190    1.2720 C   0  0  0  0  0  0  0  0  0  0  0  0
    5.2630   13.0710   -2.5200 C   0  0  0  0  0  0  0  0  0  0  0  0
    5.5170   13.7580   -1.3550 C   0  0  0  0  0  0  0  0  0  0  0  0
    0.0290   -1.1550    0.4990 H   0  0  0  0  0  0  0  0  0  0  0  0
    2.1170   -0.6200    1.7930 H   0  0  0  0  0  0  0  0  0  0  0  0
   -1.0230    0.6540   -0.8950 H   0  0  0  0  0  0  0  0  0  0  0  0
    3.0560    1.6840    1.6420 H   0  0  0  0  0  0  0  0  0  0  0  0
    5.0240    5.1450    0.5790 H   0  0  0  0  0  0  0  0  0  0  0  0
    7.9370    6.9560    2.2120 H   0  0  0  0  0  0  0  0  0  0  0  0
    4.7810   10.9900   -3.1160 H   0  0  0  0  0  0  0  0  0  0  0  0
    8.7260    9.2930    1.6050 H   0  0  0  0  0  0  0  0  0  0  0  0
    5.2580   13.5330   -3.5020 H   0  0  0  0  0  0  0  0  0  0  0  0
    5.7430   14.8080   -1.2270 H   0  0  0  0  0  0  0  0  0  0  0  0
  1 30  1  0  0  0  0
  1  2  2  0  0  0  0
  2 31  1  0  0  0  0
  3  1  1  0  0  0  0
  4  2  1  0  0  0  0
  4 33  1  0  0  0  0
  5  3  2  0  0  0  0
  5  6  1  0  0  0  0
  6  4  2  0  0  0  0
  7  6  1  0  0  0  0
  7  8  2  0  0  0  0
  9  7  1  0  0  0  0
 10  8  1  0  0  0  0
 10 34  1  0  0  0  0
 11  9  2  0  0  0  0
 12  9  1  0  0  0  0
 12 13  1  0  0  0  0
 13 10  2  0  0  0  0
 14 15  1  0  0  0  0
 14 11  1  0  0  0  0
 15 12  2  0  0  0  0
 16 13  1  1  0  0  0
 16 18  1  0  0  0  0
 17 19  2  0  0  0  0
 17 16  1  0  0  0  0
 18 20  1  0  0  0  0
 19 21  1  0  0  0  0
 20 23  2  0  0  0  0
 21 18  2  0  0  0  0
 21 24  1  0  0  0  0
 22 19  1  0  0  0  0
 22 26  1  0  0  0  0
 23 35  1  0  0  0  0
 24 27  2  0  0  0  0
 25 22  2  0  0  0  0
 27 37  1  0  0  0  0
 27 23  1  0  0  0  0
 28 25  1  0  0  0  0
 28 29  2  0  0  0  0
 29 39  1  0  0  0  0
 29 26  1  0  0  0  0
 32  3  1  0  0  0  0
 36 25  1  0  0  0  0
 38 28  1  0  0  0  0
M  END
$$$$
scan_sander_basal/min_pdbs/min_pdb_C169_315.pdb
 OpenBabel09051718453D

 39 44  0  0  1  0  0  0  0  0999 V2000
    0.4650   -0.1560    0.4910 C   0  0  0  0  0  0  0  0  0  0  0  0
    1.6060    0.1540    1.2410 C   0  0  0  0  0  0  0  0  0  0  0  0
   -0.0910    0.8350   -0.3300 C   0  0  0  0  0  0  0  0  0  0  0  0
    2.1400    1.4470    1.1360 C   0  0  0  0  0  0  0  0  0  0  0  0
    0.4290    2.0730   -0.4260 N   0  0  0  0  0  0  0  0  0  0  0  0
    1.5290    2.4080    0.2860 C   0  0  0  0  0  0  0  0  0  0  0  0
    2.0870    3.8070    0.1450 C   0  0  0  0  0  0  0  0  0  0  0  0
    3.3890    3.9590    0.4730 N   0  0  0  0  0  0  0  0  0  0  0  0
    1.3510    4.9480   -0.2770 C   0  0  0  0  0  0  0  0  0  0  0  0
    3.9890    5.1620    0.3840 C   0  0  0  0  0  0  0  0  0  0  0  0
    0.0330    4.9530   -0.5810 N   0  0  0  0  0  0  0  0  0  0  0  0
    1.9740    6.1910   -0.3770 C   0  0  0  0  0  0  0  0  0  0  0  0
    3.3490    6.3460   -0.0520 C   0  0  0  0  0  0  0  0  0  0  0  0
   -0.3230    6.4940   -0.9800 S   0  0  0  0  0  0  0  0  0  0  0  0
    1.1430    7.1830   -0.7670 N   0  0  0  0  0  0  0  0  0  0  0  0
    4.0830    7.6450   -0.1220 C   0  0  1  0  0  0  0  0  0  0  0  0
    3.3910    9.0810   -0.9320 B   0  0  0  0  0  0  0  0  0  0  0  0
    5.4110    7.9550    0.4410 C   0  0  0  0  0  0  0  0  0  0  0  0
    4.8780    9.9690   -0.6430 C   0  0  0  0  0  0  0  0  0  0  0  0
    6.1400    7.1340    1.2270 N   0  0  0  0  0  0  0  0  0  0  0  0
    5.8580    9.2420    0.1350 C   0  0  0  0  0  0  0  0  0  0  0  0
    5.1270   11.3300   -1.0230 C   0  0  0  0  0  0  0  0  0  0  0  0
    7.3290    7.6120    1.6550 C   0  0  0  0  0  0  0  0  0  0  0  0
    7.0430    9.7380    0.5490 N   0  0  0  0  0  0  0  0  0  0  0  0
    4.7720   11.7560   -2.2770 C   0  0  0  0  0  0  0  0  0  0  0  0
    5.7550   12.6270   -0.0140 S   0  0  0  0  0  0  0  0  0  0  0  0
    7.7810    8.9030    1.3110 C   0  0  0  0  0  0  0  0  0  0  0  0
    5.0310   13.1440   -2.4660 C   0  0  0  0  0  0  0  0  0  0  0  0
    5.5610   13.7570   -1.3550 C   0  0  0  0  0  0  0  0  0  0  0  0
    0.0180   -1.1440    0.5420 H   0  0  0  0  0  0  0  0  0  0  0  0
    2.0670   -0.5880    1.8880 H   0  0  0  0  0  0  0  0  0  0  0  0
   -0.9780    0.6350   -0.9300 H   0  0  0  0  0  0  0  0  0  0  0  0
    3.0230    1.7070    1.7110 H   0  0  0  0  0  0  0  0  0  0  0  0
    5.0440    5.1310    0.6290 H   0  0  0  0  0  0  0  0  0  0  0  0
    7.9280    6.9520    2.2800 H   0  0  0  0  0  0  0  0  0  0  0  0
    4.3500   11.1170   -3.0450 H   0  0  0  0  0  0  0  0  0  0  0  0
    8.7430    9.2770    1.6600 H   0  0  0  0  0  0  0  0  0  0  0  0
    4.8260   13.6610   -3.3980 H   0  0  0  0  0  0  0  0  0  0  0  0
    5.8480   14.7920   -1.2270 H   0  0  0  0  0  0  0  0  0  0  0  0
  1 30  1  0  0  0  0
  1  2  2  0  0  0  0
  2 31  1  0  0  0  0
  3  1  1  0  0  0  0
  4  2  1  0  0  0  0
  4 33  1  0  0  0  0
  5  3  2  0  0  0  0
  5  6  1  0  0  0  0
  6  4  2  0  0  0  0
  7  6  1  0  0  0  0
  7  8  2  0  0  0  0
  9  7  1  0  0  0  0
 10  8  1  0  0  0  0
 10 34  1  0  0  0  0
 11  9  2  0  0  0  0
 12  9  1  0  0  0  0
 12 13  1  0  0  0  0
 13 10  2  0  0  0  0
 14 15  1  0  0  0  0
 14 11  1  0  0  0  0
 15 12  2  0  0  0  0
 16 13  1  1  0  0  0
 16 18  1  0  0  0  0
 17 19  2  0  0  0  0
 17 16  1  0  0  0  0
 18 20  1  0  0  0  0
 19 21  1  0  0  0  0
 20 23  2  0  0  0  0
 21 18  2  0  0  0  0
 21 24  1  0  0  0  0
 22 19  1  0  0  0  0
 22 26  1  0  0  0  0
 23 35  1  0  0  0  0
 24 27  2  0  0  0  0
 25 22  2  0  0  0  0
 27 23  1  0  0  0  0
 27 37  1  0  0  0  0
 28 25  1  0  0  0  0
 28 29  2  0  0  0  0
 29 39  1  0  0  0  0
 29 26  1  0  0  0  0
 32  3  1  0  0  0  0
 36 25  1  0  0  0  0
 38 28  1  0  0  0  0
M  END
$$$$
scan_sander_basal/min_pdbs/min_pdb_C169_330.pdb
 OpenBabel09051718453D

 39 44  0  0  1  0  0  0  0  0999 V2000
    0.4830   -0.1600    0.4580 C   0  0  0  0  0  0  0  0  0  0  0  0
    1.6080    0.1530    1.2310 C   0  0  0  0  0  0  0  0  0  0  0  0
   -0.0590    0.8300   -0.3740 C   0  0  0  0  0  0  0  0  0  0  0  0
    2.1420    1.4470    1.1350 C   0  0  0  0  0  0  0  0  0  0  0  0
    0.4610    2.0680   -0.4600 N   0  0  0  0  0  0  0  0  0  0  0  0
    1.5460    2.4070    0.2730 C   0  0  0  0  0  0  0  0  0  0  0  0
    2.1050    3.8060    0.1410 C   0  0  0  0  0  0  0  0  0  0  0  0
    3.4000    3.9600    0.4940 N   0  0  0  0  0  0  0  0  0  0  0  0
    1.3750    4.9450   -0.2980 C   0  0  0  0  0  0  0  0  0  0  0  0
    4.0000    5.1630    0.4130 C   0  0  0  0  0  0  0  0  0  0  0  0
    0.0630    4.9490   -0.6260 N   0  0  0  0  0  0  0  0  0  0  0  0
    2.0000    6.1890   -0.3900 C   0  0  0  0  0  0  0  0  0  0  0  0
    3.3690    6.3450   -0.0420 C   0  0  0  0  0  0  0  0  0  0  0  0
   -0.2860    6.4870   -1.0350 S   0  0  0  0  0  0  0  0  0  0  0  0
    1.1750    7.1790   -0.7990 N   0  0  0  0  0  0  0  0  0  0  0  0
    4.1040    7.6450   -0.1050 C   0  0  1  0  0  0  0  0  0  0  0  0
    3.4270    9.0730   -0.9360 B   0  0  0  0  0  0  0  0  0  0  0  0
    5.4200    7.9600    0.4790 C   0  0  0  0  0  0  0  0  0  0  0  0
    4.9120    9.9680   -0.6400 C   0  0  0  0  0  0  0  0  0  0  0  0
    6.1310    7.1420    1.2840 N   0  0  0  0  0  0  0  0  0  0  0  0
    5.8770    9.2430    0.1660 C   0  0  0  0  0  0  0  0  0  0  0  0
    5.1610   11.3240   -1.0570 C   0  0  0  0  0  0  0  0  0  0  0  0
    7.3160    7.6160    1.7260 C   0  0  0  0  0  0  0  0  0  0  0  0
    7.0610    9.7290    0.5930 N   0  0  0  0  0  0  0  0  0  0  0  0
    4.5560   11.7970   -2.1940 C   0  0  0  0  0  0  0  0  0  0  0  0
    6.0990   12.5660   -0.2310 S   0  0  0  0  0  0  0  0  0  0  0  0
    7.7830    8.8990    1.3750 C   0  0  0  0  0  0  0  0  0  0  0  0
    4.8610   13.1670   -2.4430 C   0  0  0  0  0  0  0  0  0  0  0  0
    5.6780   13.7260   -1.4900 C   0  0  0  0  0  0  0  0  0  0  0  0
    0.0370   -1.1490    0.5000 H   0  0  0  0  0  0  0  0  0  0  0  0
    2.0570   -0.5870    1.8880 H   0  0  0  0  0  0  0  0  0  0  0  0
   -0.9330    0.6280   -0.9920 H   0  0  0  0  0  0  0  0  0  0  0  0
    3.0130    1.7090    1.7280 H   0  0  0  0  0  0  0  0  0  0  0  0
    5.0500    5.1340    0.6780 H   0  0  0  0  0  0  0  0  0  0  0  0
    7.9000    6.9570    2.3670 H   0  0  0  0  0  0  0  0  0  0  0  0
    3.9250   11.2060   -2.8470 H   0  0  0  0  0  0  0  0  0  0  0  0
    8.7420    9.2690    1.7340 H   0  0  0  0  0  0  0  0  0  0  0  0
    4.4810   13.7090   -3.3030 H   0  0  0  0  0  0  0  0  0  0  0  0
    6.0600   14.7370   -1.4360 H   0  0  0  0  0  0  0  0  0  0  0  0
  1 30  1  0  0  0  0
  1  2  2  0  0  0  0
  2 31  1  0  0  0  0
  3  1  1  0  0  0  0
  4  2  1  0  0  0  0
  4 33  1  0  0  0  0
  5  3  2  0  0  0  0
  5  6  1  0  0  0  0
  6  4  2  0  0  0  0
  7  6  1  0  0  0  0
  7  8  2  0  0  0  0
  9  7  1  0  0  0  0
 10  8  1  0  0  0  0
 10 34  1  0  0  0  0
 11  9  2  0  0  0  0
 12  9  1  0  0  0  0
 12 13  1  0  0  0  0
 13 10  2  0  0  0  0
 14 15  1  0  0  0  0
 14 11  1  0  0  0  0
 15 12  2  0  0  0  0
 16 13  1  1  0  0  0
 16 18  1  0  0  0  0
 17 19  2  0  0  0  0
 17 16  1  0  0  0  0
 18 20  1  0  0  0  0
 19 21  1  0  0  0  0
 20 23  2  0  0  0  0
 21 18  2  0  0  0  0
 21 24  1  0  0  0  0
 22 19  1  0  0  0  0
 22 26  1  0  0  0  0
 23 35  1  0  0  0  0
 24 27  2  0  0  0  0
 25 22  2  0  0  0  0
 27 23  1  0  0  0  0
 27 37  1  0  0  0  0
 28 25  1  0  0  0  0
 28 29  2  0  0  0  0
 29 39  1  0  0  0  0
 29 26  1  0  0  0  0
 32  3  1  0  0  0  0
 36 25  1  0  0  0  0
 38 28  1  0  0  0  0
M  END
$$$$
scan_sander_basal/min_pdbs/min_pdb_C169_345.pdb
 OpenBabel09051718453D

 39 44  0  0  1  0  0  0  0  0999 V2000
    0.1160    0.0370    0.6070 C   0  0  0  0  0  0  0  0  0  0  0  0
    1.4340    0.1790    1.0600 C   0  0  0  0  0  0  0  0  0  0  0  0
   -0.5300    1.1540    0.0590 C   0  0  0  0  0  0  0  0  0  0  0  0
    2.0460    1.4350    0.9450 C   0  0  0  0  0  0  0  0  0  0  0  0
    0.0650    2.3560   -0.0490 N   0  0  0  0  0  0  0  0  0  0  0  0
    1.3360    2.5300    0.3810 C   0  0  0  0  0  0  0  0  0  0  0  0
    1.9730    3.8950    0.2360 C   0  0  0  0  0  0  0  0  0  0  0  0
    3.3230    3.9170    0.2270 N   0  0  0  0  0  0  0  0  0  0  0  0
    1.2670    5.1240    0.1320 C   0  0  0  0  0  0  0  0  0  0  0  0
    3.9940    5.0790    0.1040 C   0  0  0  0  0  0  0  0  0  0  0  0
   -0.0780    5.2550    0.1810 N   0  0  0  0  0  0  0  0  0  0  0  0
    1.9620    6.3260   -0.0020 C   0  0  0  0  0  0  0  0  0  0  0  0
    3.3830    6.3480   -0.0300 C   0  0  0  0  0  0  0  0  0  0  0  0
   -0.3740    6.8520    0.0420 S   0  0  0  0  0  0  0  0  0  0  0  0
    1.1580    7.4110   -0.0650 N   0  0  0  0  0  0  0  0  0  0  0  0
    4.1960    7.5950   -0.1550 C   0  0  1  0  0  0  0  0  0  0  0  0
    3.4660    9.1580   -0.6090 B   0  0  0  0  0  0  0  0  0  0  0  0
    5.6430    7.7500    0.0730 C   0  0  0  0  0  0  0  0  0  0  0  0
    5.0510    9.9240   -0.6260 C   0  0  0  0  0  0  0  0  0  0  0  0
    6.4590    6.7880    0.5540 N   0  0  0  0  0  0  0  0  0  0  0  0
    6.1220    9.0350   -0.2040 C   0  0  0  0  0  0  0  0  0  0  0  0
    5.2980   11.3100   -0.9520 C   0  0  0  0  0  0  0  0  0  0  0  0
    7.7580    7.1200    0.7100 C   0  0  0  0  0  0  0  0  0  0  0  0
    7.4190    9.3800   -0.0570 N   0  0  0  0  0  0  0  0  0  0  0  0
    4.3120   12.0400   -1.5720 C   0  0  0  0  0  0  0  0  0  0  0  0
    6.7170   12.2970   -0.5960 S   0  0  0  0  0  0  0  0  0  0  0  0
    8.2370    8.4080    0.3970 C   0  0  0  0  0  0  0  0  0  0  0  0
    4.6870   13.3970   -1.7930 C   0  0  0  0  0  0  0  0  0  0  0  0
    5.9450   13.6990   -1.3320 C   0  0  0  0  0  0  0  0  0  0  0  0
   -0.3970   -0.9170    0.6770 H   0  0  0  0  0  0  0  0  0  0  0  0
    1.9690   -0.6640    1.4910 H   0  0  0  0  0  0  0  0  0  0  0  0
   -1.5550    1.0870   -0.3060 H   0  0  0  0  0  0  0  0  0  0  0  0
    3.0660    1.5650    1.2930 H   0  0  0  0  0  0  0  0  0  0  0  0
    5.0680    4.9480    0.0620 H   0  0  0  0  0  0  0  0  0  0  0  0
    8.4230    6.3450    1.0880 H   0  0  0  0  0  0  0  0  0  0  0  0
    3.3500   11.6460   -1.8780 H   0  0  0  0  0  0  0  0  0  0  0  0
    9.2870    8.6670    0.5240 H   0  0  0  0  0  0  0  0  0  0  0  0
    4.0360   14.1170   -2.2770 H   0  0  0  0  0  0  0  0  0  0  0  0
    6.4710   14.6430   -1.3700 H   0  0  0  0  0  0  0  0  0  0  0  0
  1 30  1  0  0  0  0
  1  2  2  0  0  0  0
  2 31  1  0  0  0  0
  3  1  1  0  0  0  0
  4  2  1  0  0  0  0
  4 33  1  0  0  0  0
  5  3  2  0  0  0  0
  5  6  1  0  0  0  0
  6  4  2  0  0  0  0
  7  6  1  0  0  0  0
  8  7  2  0  0  0  0
  9 11  2  0  0  0  0
  9  7  1  0  0  0  0
 10  8  1  0  0  0  0
 12  9  1  0  0  0  0
 13 12  1  0  0  0  0
 13 10  2  0  0  0  0
 14 11  1  0  0  0  0
 15 12  2  0  0  0  0
 15 14  1  0  0  0  0
 16 13  1  1  0  0  0
 16 18  1  0  0  0  0
 17 16  1  0  0  0  0
 18 20  2  0  0  0  0
 19 17  2  0  0  0  0
 19 21  1  0  0  0  0
 20 23  1  0  0  0  0
 21 24  2  0  0  0  0
 21 18  1  0  0  0  0
 22 19  1  0  0  0  0
 22 26  1  0  0  0  0
 23 35  1  0  0  0  0
 24 27  1  0  0  0  0
 25 22  2  0  0  0  0
 27 37  1  0  0  0  0
 27 23  2  0  0  0  0
 28 25  1  0  0  0  0
 28 29  2  0  0  0  0
 29 26  1  0  0  0  0
 32  3  1  0  0  0  0
 34 10  1  0  0  0  0
 36 25  1  0  0  0  0
 38 28  1  0  0  0  0
 39 29  1  0  0  0  0
M  END
$$$$
scan_sander_basal/min_pdbs/min_pdb_C169_360.pdb
 OpenBabel09051718453D

 39 44  0  0  1  0  0  0  0  0999 V2000
    0.1430    0.0290    0.4540 C   0  0  0  0  0  0  0  0  0  0  0  0
    1.4680    0.1530    0.8880 C   0  0  0  0  0  0  0  0  0  0  0  0
   -0.5180    1.1690   -0.0240 C   0  0  0  0  0  0  0  0  0  0  0  0
    2.0730    1.4160    0.8260 C   0  0  0  0  0  0  0  0  0  0  0  0
    0.0700    2.3770   -0.0820 N   0  0  0  0  0  0  0  0  0  0  0  0
    1.3490    2.5350    0.3320 C   0  0  0  0  0  0  0  0  0  0  0  0
    1.9770    3.9080    0.2430 C   0  0  0  0  0  0  0  0  0  0  0  0
    3.3270    3.9380    0.2090 N   0  0  0  0  0  0  0  0  0  0  0  0
    1.2640    5.1380    0.2160 C   0  0  0  0  0  0  0  0  0  0  0  0
    3.9910    5.1080    0.1290 C   0  0  0  0  0  0  0  0  0  0  0  0
   -0.0800    5.2610    0.3000 N   0  0  0  0  0  0  0  0  0  0  0  0
    1.9510    6.3480    0.1250 C   0  0  0  0  0  0  0  0  0  0  0  0
    3.3710    6.3770    0.0670 C   0  0  0  0  0  0  0  0  0  0  0  0
   -0.3830    6.8620    0.2440 S   0  0  0  0  0  0  0  0  0  0  0  0
    1.1440    7.4320    0.1310 N   0  0  0  0  0  0  0  0  0  0  0  0
    4.1790    7.6300   -0.0190 C   0  0  1  0  0  0  0  0  0  0  0  0
    3.4400    9.2110   -0.3850 B   0  0  0  0  0  0  0  0  0  0  0  0
    5.6290    7.7750    0.1840 C   0  0  0  0  0  0  0  0  0  0  0  0
    5.0340    9.9540   -0.4970 C   0  0  0  0  0  0  0  0  0  0  0  0
    6.4370    6.8150    0.6810 N   0  0  0  0  0  0  0  0  0  0  0  0
    6.1100    9.0570   -0.1020 C   0  0  0  0  0  0  0  0  0  0  0  0
    5.2960   11.2940   -0.9760 C   0  0  0  0  0  0  0  0  0  0  0  0
    7.7350    7.1480    0.8450 C   0  0  0  0  0  0  0  0  0  0  0  0
    7.4020    9.4070    0.0730 N   0  0  0  0  0  0  0  0  0  0  0  0
    4.2450   12.0810   -1.3850 C   0  0  0  0  0  0  0  0  0  0  0  0
    6.8440   12.1150   -1.1870 S   0  0  0  0  0  0  0  0  0  0  0  0
    8.2160    8.4360    0.5380 C   0  0  0  0  0  0  0  0  0  0  0  0
    4.6630   13.3580   -1.8590 C   0  0  0  0  0  0  0  0  0  0  0  0
    6.0240   13.5390   -1.8180 C   0  0  0  0  0  0  0  0  0  0  0  0
   -0.3650   -0.9310    0.4840 H   0  0  0  0  0  0  0  0  0  0  0  0
    2.0150   -0.7080    1.2650 H   0  0  0  0  0  0  0  0  0  0  0  0
   -1.5490    1.1150   -0.3720 H   0  0  0  0  0  0  0  0  0  0  0  0
    3.0990    1.5340    1.1600 H   0  0  0  0  0  0  0  0  0  0  0  0
    5.0660    4.9860    0.0580 H   0  0  0  0  0  0  0  0  0  0  0  0
    8.3960    6.3750    1.2340 H   0  0  0  0  0  0  0  0  0  0  0  0
    3.2030   11.7870   -1.3600 H   0  0  0  0  0  0  0  0  0  0  0  0
    9.2640    8.6980    0.6800 H   0  0  0  0  0  0  0  0  0  0  0  0
    3.9680   14.1090   -2.2190 H   0  0  0  0  0  0  0  0  0  0  0  0
    6.6010   14.4040   -2.1170 H   0  0  0  0  0  0  0  0  0  0  0  0
  1 30  1  0  0  0  0
  1  2  2  0  0  0  0
  2 31  1  0  0  0  0
  3  1  1  0  0  0  0
  4  2  1  0  0  0  0
  4 33  1  0  0  0  0
  5  3  2  0  0  0  0
  5  6  1  0  0  0  0
  6  4  2  0  0  0  0
  7  6  1  0  0  0  0
  8  7  2  0  0  0  0
  9  7  1  0  0  0  0
  9 11  2  0  0  0  0
 10  8  1  0  0  0  0
 12 15  2  0  0  0  0
 12  9  1  0  0  0  0
 13 12  1  0  0  0  0
 13 10  2  0  0  0  0
 14 11  1  0  0  0  0
 15 14  1  0  0  0  0
 16 13  1  1  0  0  0
 16 18  1  0  0  0  0
 17 16  1  0  0  0  0
 18 20  2  0  0  0  0
 19 17  2  0  0  0  0
 19 21  1  0  0  0  0
 20 23  1  0  0  0  0
 21 24  2  0  0  0  0
 21 18  1  0  0  0  0
 22 19  1  0  0  0  0
 23 35  1  0  0  0  0
 24 27  1  0  0  0  0
 25 36  1  0  0  0  0
 25 22  2  0  0  0  0
 26 22  1  0  0  0  0
 27 37  1  0  0  0  0
 27 23  2  0  0  0  0
 28 29  2  0  0  0  0
 28 25  1  0  0  0  0
 29 26  1  0  0  0  0
 32  3  1  0  0  0  0
 34 10  1  0  0  0  0
 38 28  1  0  0  0  0
 39 29  1  0  0  0  0
M  END
$$$$
