scan_sander_basal_param/min_pdbs/min_pdb_C169_000.pdb
 OpenBabel10021702103D

 39 44  0  0  1  0  0  0  0  0999 V2000
    0.4700   -0.2590   -0.0580 C   0  0  0  0  0  0  0  0  0  0  0  0
    1.6070   -0.0110    0.7210 C   0  0  0  0  0  0  0  0  0  0  0  0
   -0.0960    0.8010   -0.7790 C   0  0  0  0  0  0  0  0  0  0  0  0
    2.1260    1.2920    0.7450 C   0  0  0  0  0  0  0  0  0  0  0  0
    0.4100    2.0470   -0.7520 N   0  0  0  0  0  0  0  0  0  0  0  0
    1.5040    2.3260   -0.0070 C   0  0  0  0  0  0  0  0  0  0  0  0
    2.0450    3.7390   -0.0040 C   0  0  0  0  0  0  0  0  0  0  0  0
    3.3430    3.8710    0.3420 N   0  0  0  0  0  0  0  0  0  0  0  0
    1.2990    4.9090   -0.3120 C   0  0  0  0  0  0  0  0  0  0  0  0
    3.9240    5.0840    0.3860 C   0  0  0  0  0  0  0  0  0  0  0  0
   -0.0090    4.9190   -0.6540 N   0  0  0  0  0  0  0  0  0  0  0  0
    1.9030    6.1690   -0.2630 C   0  0  0  0  0  0  0  0  0  0  0  0
    3.2700    6.3110    0.1110 C   0  0  0  0  0  0  0  0  0  0  0  0
   -0.3810    6.4810   -0.9300 S   0  0  0  0  0  0  0  0  0  0  0  0
    1.0650    7.1630   -0.6140 N   0  0  0  0  0  0  0  0  0  0  0  0
    4.0740    7.5740    0.2270 C   0  0  1  0  0  0  0  0  0  0  0  0
    5.7910    7.4460    0.7000 B   0  0  0  0  0  0  0  0  0  0  0  0
    3.7170    8.9920    0.0010 C   0  0  0  0  0  0  0  0  0  0  0  0
    6.0490    9.1410    0.3350 C   0  0  0  0  0  0  0  0  0  0  0  0
    2.4660    9.4840   -0.0960 N   0  0  0  0  0  0  0  0  0  0  0  0
    4.8190    9.8580    0.0460 C   0  0  0  0  0  0  0  0  0  0  0  0
    7.3550    9.7550    0.3050 C   0  0  0  0  0  0  0  0  0  0  0  0
    2.3340   10.8220   -0.1920 C   0  0  0  0  0  0  0  0  0  0  0  0
    4.7010   11.2030   -0.0040 N   0  0  0  0  0  0  0  0  0  0  0  0
    7.6510   10.8980   -0.4010 C   0  0  0  0  0  0  0  0  0  0  0  0
    8.7520    9.1340    1.1740 S   0  0  0  0  0  0  0  0  0  0  0  0
    3.4480   11.6800   -0.1470 C   0  0  0  0  0  0  0  0  0  0  0  0
    9.0090   11.2990   -0.2430 C   0  0  0  0  0  0  0  0  0  0  0  0
    9.7350   10.4660    0.5740 C   0  0  0  0  0  0  0  0  0  0  0  0
    0.0340   -1.2530   -0.1040 H   0  0  0  0  0  0  0  0  0  0  0  0
    2.0760   -0.8070    1.2940 H   0  0  0  0  0  0  0  0  0  0  0  0
   -0.9800    0.6500   -1.3970 H   0  0  0  0  0  0  0  0  0  0  0  0
    3.0050    1.5040    1.3460 H   0  0  0  0  0  0  0  0  0  0  0  0
    4.9700    5.0380    0.6740 H   0  0  0  0  0  0  0  0  0  0  0  0
    1.3210   11.2110   -0.2900 H   0  0  0  0  0  0  0  0  0  0  0  0
    6.9590   11.4400   -1.0340 H   0  0  0  0  0  0  0  0  0  0  0  0
    3.3350   12.7620   -0.2070 H   0  0  0  0  0  0  0  0  0  0  0  0
    9.4230   12.1770   -0.7270 H   0  0  0  0  0  0  0  0  0  0  0  0
   10.7760   10.5390    0.8600 H   0  0  0  0  0  0  0  0  0  0  0  0
  1  2  2  0  0  0  0
  2  4  1  0  0  0  0
  2 31  1  0  0  0  0
  3  5  2  0  0  0  0
  3  1  1  0  0  0  0
  4 33  1  0  0  0  0
  5  6  1  0  0  0  0
  6  7  1  0  0  0  0
  6  4  2  0  0  0  0
  7  8  2  0  0  0  0
  8 10  1  0  0  0  0
  9 12  1  0  0  0  0
  9  7  1  0  0  0  0
 10 34  1  0  0  0  0
 11  9  2  0  0  0  0
 12 13  1  0  0  0  0
 13 10  2  0  0  0  0
 14 11  1  0  0  0  0
 14 15  1  0  0  0  0
 15 12  2  0  0  0  0
 16 13  1  6  0  0  0
 16 17  1  0  0  0  0
 18 21  1  0  0  0  0
 18 16  1  0  0  0  0
 19 17  2  0  0  0  0
 20 18  2  0  0  0  0
 21 19  1  0  0  0  0
 22 19  1  0  0  0  0
 22 26  1  0  0  0  0
 23 27  2  0  0  0  0
 23 20  1  0  0  0  0
 24 21  2  0  0  0  0
 25 28  1  0  0  0  0
 25 22  2  0  0  0  0
 27 24  1  0  0  0  0
 28 29  2  0  0  0  0
 29 39  1  0  0  0  0
 29 26  1  0  0  0  0
 30  1  1  0  0  0  0
 32  3  1  0  0  0  0
 35 23  1  0  0  0  0
 36 25  1  0  0  0  0
 37 27  1  0  0  0  0
 38 28  1  0  0  0  0
M  END
$$$$
scan_sander_basal_param/min_pdbs/min_pdb_C169_015.pdb
 OpenBabel10021702103D

 39 44  0  0  1  0  0  0  0  0999 V2000
    0.3830   -0.1940   -0.0850 C   0  0  0  0  0  0  0  0  0  0  0  0
    1.3410    0.0850    0.8980 C   0  0  0  0  0  0  0  0  0  0  0  0
    0.0300    0.8190   -0.9870 C   0  0  0  0  0  0  0  0  0  0  0  0
    1.9030    1.3700    0.9340 C   0  0  0  0  0  0  0  0  0  0  0  0
    0.5750    2.0490   -0.9460 N   0  0  0  0  0  0  0  0  0  0  0  0
    1.5000    2.3550   -0.0080 C   0  0  0  0  0  0  0  0  0  0  0  0
    2.0940    3.7480    0.0010 C   0  0  0  0  0  0  0  0  0  0  0  0
    3.2980    3.8690    0.6050 N   0  0  0  0  0  0  0  0  0  0  0  0
    1.4800    4.9080   -0.5480 C   0  0  0  0  0  0  0  0  0  0  0  0
    3.9120    5.0650    0.6780 C   0  0  0  0  0  0  0  0  0  0  0  0
    0.2890    4.9310   -1.1860 N   0  0  0  0  0  0  0  0  0  0  0  0
    2.1130    6.1480   -0.4600 C   0  0  0  0  0  0  0  0  0  0  0  0
    3.3660    6.2750    0.1940 C   0  0  0  0  0  0  0  0  0  0  0  0
    0.0840    6.4730   -1.6800 S   0  0  0  0  0  0  0  0  0  0  0  0
    1.4600    7.1340   -1.1060 N   0  0  0  0  0  0  0  0  0  0  0  0
    4.1520    7.5290    0.3650 C   0  0  1  0  0  0  0  0  0  0  0  0
    5.8790    7.4290    0.7890 B   0  0  0  0  0  0  0  0  0  0  0  0
    3.7350    8.9290    0.1950 C   0  0  0  0  0  0  0  0  0  0  0  0
    6.0740    9.1230    0.3590 C   0  0  2  0  0  0  0  0  0  0  0  0
    2.4640    9.3700    0.3020 N   0  0  0  0  0  0  0  0  0  0  0  0
    4.8120    9.8210    0.1680 C   0  0  0  0  0  0  0  0  0  0  0  0
    7.3560    9.7630    0.1890 C   0  0  0  0  0  0  0  0  0  0  0  0
    2.2870   10.7070    0.2800 C   0  0  0  0  0  0  0  0  0  0  0  0
    4.6520   11.1620    0.2000 N   0  0  0  0  0  0  0  0  0  0  0  0
    7.5460   10.8920   -0.5710 C   0  0  0  0  0  0  0  0  0  0  0  0
    8.8480    9.2010    0.9310 S   0  0  0  0  0  0  0  0  0  0  0  0
    3.3760   11.6000    0.2220 C   0  0  0  0  0  0  0  0  0  0  0  0
    8.9020   11.3290   -0.5640 C   0  0  0  0  0  0  0  0  0  0  0  0
    9.7290   10.5370    0.1950 C   0  0  0  0  0  0  0  0  0  0  0  0
   -0.0770   -1.1750   -0.1490 H   0  0  0  0  0  0  0  0  0  0  0  0
    1.6420   -0.6740    1.6160 H   0  0  0  0  0  0  0  0  0  0  0  0
   -0.7100    0.6430   -1.7660 H   0  0  0  0  0  0  0  0  0  0  0  0
    2.6450    1.6060    1.6900 H   0  0  0  0  0  0  0  0  0  0  0  0
    4.8690    5.0380    1.1950 H   0  0  0  0  0  0  0  0  0  0  0  0
    1.2610   11.0680    0.3320 H   0  0  0  0  0  0  0  0  0  0  0  0
    6.7760   11.3990   -1.1400 H   0  0  0  0  0  0  0  0  0  0  0  0
    3.2250   12.6780    0.2260 H   0  0  0  0  0  0  0  0  0  0  0  0
    9.2420   12.2020   -1.1120 H   0  0  0  0  0  0  0  0  0  0  0  0
   10.7920   10.6410    0.3700 H   0  0  0  0  0  0  0  0  0  0  0  0
  1  2  2  0  0  0  0
  2  4  1  0  0  0  0
  2 31  1  0  0  0  0
  3  5  2  0  0  0  0
  3  1  1  0  0  0  0
  4 33  1  0  0  0  0
  5  6  1  0  0  0  0
  6  7  1  0  0  0  0
  6  4  2  0  0  0  0
  7  8  2  0  0  0  0
  8 10  1  0  0  0  0
  9 12  1  0  0  0  0
  9  7  1  0  0  0  0
 10 34  1  0  0  0  0
 11  9  2  0  0  0  0
 12 13  1  0  0  0  0
 13 10  2  0  0  0  0
 14 11  1  0  0  0  0
 14 15  1  0  0  0  0
 15 12  2  0  0  0  0
 16 13  1  6  0  0  0
 16 17  1  0  0  0  0
 18 20  1  0  0  0  0
 18 16  1  0  0  0  0
 19 22  1  6  0  0  0
 19 17  1  0  0  0  0
 21 18  2  0  0  0  0
 21 24  1  0  0  0  0
 21 19  1  0  0  0  0
 22 26  1  0  0  0  0
 23 20  2  0  0  0  0
 23 35  1  0  0  0  0
 24 27  2  0  0  0  0
 25 28  1  0  0  0  0
 25 22  2  0  0  0  0
 27 37  1  0  0  0  0
 27 23  1  0  0  0  0
 28 29  2  0  0  0  0
 29 39  1  0  0  0  0
 29 26  1  0  0  0  0
 30  1  1  0  0  0  0
 32  3  1  0  0  0  0
 36 25  1  0  0  0  0
 38 28  1  0  0  0  0
M  END
$$$$
scan_sander_basal_param/min_pdbs/min_pdb_C169_030.pdb
 OpenBabel10021702103D

 39 44  0  0  1  0  0  0  0  0999 V2000
    0.2430   -0.1270   -0.0030 C   0  0  0  0  0  0  0  0  0  0  0  0
    1.1140    0.1840    1.0480 C   0  0  0  0  0  0  0  0  0  0  0  0
    0.0240    0.8330   -1.0010 C   0  0  0  0  0  0  0  0  0  0  0  0
    1.7280    1.4450    1.0530 C   0  0  0  0  0  0  0  0  0  0  0  0
    0.6180    2.0400   -0.9890 N   0  0  0  0  0  0  0  0  0  0  0  0
    1.4630    2.3760    0.0120 C   0  0  0  0  0  0  0  0  0  0  0  0
    2.1160    3.7410   -0.0130 C   0  0  0  0  0  0  0  0  0  0  0  0
    3.2630    3.8590    0.6980 N   0  0  0  0  0  0  0  0  0  0  0  0
    1.6060    4.8810   -0.6990 C   0  0  0  0  0  0  0  0  0  0  0  0
    3.9210    5.0330    0.7490 C   0  0  0  0  0  0  0  0  0  0  0  0
    0.4820    4.9130   -1.4480 N   0  0  0  0  0  0  0  0  0  0  0  0
    2.2840    6.0960   -0.6350 C   0  0  0  0  0  0  0  0  0  0  0  0
    3.4730    6.2130    0.1210 C   0  0  0  0  0  0  0  0  0  0  0  0
    0.3990    6.4280   -2.0530 S   0  0  0  0  0  0  0  0  0  0  0  0
    1.7480    7.0720   -1.3970 N   0  0  0  0  0  0  0  0  0  0  0  0
    4.2690    7.4490    0.2680 C   0  0  1  0  0  0  0  0  0  0  0  0
    6.0310    7.3530    0.4770 B   0  0  0  0  0  0  0  0  0  0  0  0
    3.7960    8.8350    0.2400 C   0  0  0  0  0  0  0  0  0  0  0  0
    6.1340    9.0970    0.2370 C   0  0  0  0  0  0  0  0  0  0  0  0
    2.5130    9.2050    0.4370 N   0  0  0  0  0  0  0  0  0  0  0  0
    4.8390    9.7640    0.2130 C   0  0  0  0  0  0  0  0  0  0  0  0
    7.3820    9.8000    0.0590 C   0  0  0  0  0  0  0  0  0  0  0  0
    2.2890   10.5330    0.5290 C   0  0  0  0  0  0  0  0  0  0  0  0
    4.6310   11.0910    0.3540 N   0  0  0  0  0  0  0  0  0  0  0  0
    7.4880   11.0150   -0.5740 C   0  0  0  0  0  0  0  0  0  0  0  0
    8.9370    9.2100    0.6310 S   0  0  0  0  0  0  0  0  0  0  0  0
    3.3410   11.4710    0.4830 C   0  0  0  0  0  0  0  0  0  0  0  0
    8.8290   11.4970   -0.6040 C   0  0  0  0  0  0  0  0  0  0  0  0
    9.7280   10.6530    0.0020 C   0  0  0  0  0  0  0  0  0  0  0  0
   -0.2540   -1.0910   -0.0470 H   0  0  0  0  0  0  0  0  0  0  0  0
    1.3100   -0.5340    1.8410 H   0  0  0  0  0  0  0  0  0  0  0  0
   -0.6460    0.6310   -1.8370 H   0  0  0  0  0  0  0  0  0  0  0  0
    2.4040    1.7050    1.8620 H   0  0  0  0  0  0  0  0  0  0  0  0
    4.8250    5.0280    1.3550 H   0  0  0  0  0  0  0  0  0  0  0  0
    1.2550   10.8480    0.6600 H   0  0  0  0  0  0  0  0  0  0  0  0
    6.6690   11.5560   -1.0320 H   0  0  0  0  0  0  0  0  0  0  0  0
    3.1500   12.5390    0.5780 H   0  0  0  0  0  0  0  0  0  0  0  0
    9.1050   12.4390   -1.0670 H   0  0  0  0  0  0  0  0  0  0  0  0
   10.7970   10.7750    0.1180 H   0  0  0  0  0  0  0  0  0  0  0  0
  1  2  2  0  0  0  0
  2  4  1  0  0  0  0
  2 31  1  0  0  0  0
  3  5  2  0  0  0  0
  3  1  1  0  0  0  0
  4 33  1  0  0  0  0
  5  6  1  0  0  0  0
  6  4  2  0  0  0  0
  7  6  1  0  0  0  0
  7  8  2  0  0  0  0
  8 10  1  0  0  0  0
  9 12  1  0  0  0  0
  9  7  1  0  0  0  0
 10 34  1  0  0  0  0
 11  9  2  0  0  0  0
 12 13  1  0  0  0  0
 13 10  2  0  0  0  0
 14 11  1  0  0  0  0
 14 15  1  0  0  0  0
 15 12  2  0  0  0  0
 16 13  1  6  0  0  0
 16 17  1  0  0  0  0
 18 16  1  0  0  0  0
 18 20  1  0  0  0  0
 19 17  2  0  0  0  0
 20 23  2  0  0  0  0
 21 19  1  0  0  0  0
 21 18  2  0  0  0  0
 21 24  1  0  0  0  0
 22 19  1  0  0  0  0
 22 26  1  0  0  0  0
 23 35  1  0  0  0  0
 24 27  2  0  0  0  0
 25 22  2  0  0  0  0
 27 23  1  0  0  0  0
 27 37  1  0  0  0  0
 28 25  1  0  0  0  0
 28 29  2  0  0  0  0
 29 39  1  0  0  0  0
 29 26  1  0  0  0  0
 30  1  1  0  0  0  0
 32  3  1  0  0  0  0
 36 25  1  0  0  0  0
 38 28  1  0  0  0  0
M  END
$$$$
scan_sander_basal_param/min_pdbs/min_pdb_C169_045.pdb
 OpenBabel10021702103D

 39 44  0  0  1  0  0  0  0  0999 V2000
    0.1260   -0.0580    0.0760 C   0  0  0  0  0  0  0  0  0  0  0  0
    0.9060    0.3020    1.1810 C   0  0  0  0  0  0  0  0  0  0  0  0
    0.0360    0.8340   -1.0030 C   0  0  0  0  0  0  0  0  0  0  0  0
    1.5620    1.5410    1.1580 C   0  0  0  0  0  0  0  0  0  0  0  0
    0.6700    2.0200   -1.0170 N   0  0  0  0  0  0  0  0  0  0  0  0
    1.4290    2.4020    0.0350 C   0  0  0  0  0  0  0  0  0  0  0  0
    2.1300    3.7410   -0.0230 C   0  0  0  0  0  0  0  0  0  0  0  0
    3.2110    3.8770    0.7850 N   0  0  0  0  0  0  0  0  0  0  0  0
    1.7240    4.8420   -0.8330 C   0  0  0  0  0  0  0  0  0  0  0  0
    3.9040    5.0330    0.8140 C   0  0  0  0  0  0  0  0  0  0  0  0
    0.6670    4.8630   -1.6760 N   0  0  0  0  0  0  0  0  0  0  0  0
    2.4400    6.0340   -0.7960 C   0  0  0  0  0  0  0  0  0  0  0  0
    3.5590    6.1620    0.0500 C   0  0  0  0  0  0  0  0  0  0  0  0
    0.6890    6.3430   -2.3710 S   0  0  0  0  0  0  0  0  0  0  0  0
    2.0020    6.9880   -1.6440 N   0  0  0  0  0  0  0  0  0  0  0  0
    4.3630    7.3880    0.1600 C   0  0  1  0  0  0  0  0  0  0  0  0
    6.1340    7.3160    0.1480 B   0  0  0  0  0  0  0  0  0  0  0  0
    3.8530    8.7490    0.2780 C   0  0  0  0  0  0  0  0  0  0  0  0
    6.1770    9.0810    0.1110 C   0  0  0  0  0  0  0  0  0  0  0  0
    2.5660    9.0550    0.5400 N   0  0  0  0  0  0  0  0  0  0  0  0
    4.8660    9.7090    0.2520 C   0  0  0  0  0  0  0  0  0  0  0  0
    7.3950    9.8350   -0.0650 C   0  0  0  0  0  0  0  0  0  0  0  0
    2.3080   10.3670    0.7340 C   0  0  0  0  0  0  0  0  0  0  0  0
    4.6230   11.0160    0.4900 N   0  0  0  0  0  0  0  0  0  0  0  0
    7.4380   11.1190   -0.5550 C   0  0  0  0  0  0  0  0  0  0  0  0
    8.9960    9.2220    0.3310 S   0  0  0  0  0  0  0  0  0  0  0  0
    3.3300   11.3400    0.7100 C   0  0  0  0  0  0  0  0  0  0  0  0
    8.7660   11.6340   -0.6140 C   0  0  0  0  0  0  0  0  0  0  0  0
    9.7180   10.7480   -0.1710 C   0  0  0  0  0  0  0  0  0  0  0  0
   -0.4000   -1.0070    0.0510 H   0  0  0  0  0  0  0  0  0  0  0  0
    1.0010   -0.3630    2.0370 H   0  0  0  0  0  0  0  0  0  0  0  0
   -0.5600    0.5920   -1.8820 H   0  0  0  0  0  0  0  0  0  0  0  0
    2.1690    1.8390    2.0070 H   0  0  0  0  0  0  0  0  0  0  0  0
    4.7540    5.0590    1.4950 H   0  0  0  0  0  0  0  0  0  0  0  0
    1.2730   10.6400    0.9290 H   0  0  0  0  0  0  0  0  0  0  0  0
    6.5830   11.6890   -0.8940 H   0  0  0  0  0  0  0  0  0  0  0  0
    3.1110   12.3920    0.8860 H   0  0  0  0  0  0  0  0  0  0  0  0
    8.9950   12.6300   -0.9790 H   0  0  0  0  0  0  0  0  0  0  0  0
   10.7900   10.8820   -0.1100 H   0  0  0  0  0  0  0  0  0  0  0  0
  1  2  2  0  0  0  0
  2 31  1  0  0  0  0
  3  1  1  0  0  0  0
  4  2  1  0  0  0  0
  4 33  1  0  0  0  0
  5  3  2  0  0  0  0
  5  6  1  0  0  0  0
  6  4  2  0  0  0  0
  7  6  1  0  0  0  0
  7  8  2  0  0  0  0
  8 10  1  0  0  0  0
  9 12  1  0  0  0  0
  9  7  1  0  0  0  0
 10 34  1  0  0  0  0
 11  9  2  0  0  0  0
 12 13  1  0  0  0  0
 13 10  2  0  0  0  0
 14 11  1  0  0  0  0
 14 15  1  0  0  0  0
 15 12  2  0  0  0  0
 16 13  1  6  0  0  0
 16 18  1  0  0  0  0
 17 16  1  0  0  0  0
 18 20  1  0  0  0  0
 19 17  2  0  0  0  0
 19 21  1  0  0  0  0
 20 23  2  0  0  0  0
 21 18  2  0  0  0  0
 21 24  1  0  0  0  0
 22 19  1  0  0  0  0
 22 26  1  0  0  0  0
 23 35  1  0  0  0  0
 24 27  2  0  0  0  0
 25 22  2  0  0  0  0
 27 23  1  0  0  0  0
 27 37  1  0  0  0  0
 28 25  1  0  0  0  0
 28 29  2  0  0  0  0
 29 39  1  0  0  0  0
 29 26  1  0  0  0  0
 30  1  1  0  0  0  0
 32  3  1  0  0  0  0
 36 25  1  0  0  0  0
 38 28  1  0  0  0  0
M  END
$$$$
scan_sander_basal_param/min_pdbs/min_pdb_C169_060.pdb
 OpenBabel10021702103D

 39 44  0  0  1  0  0  0  0  0999 V2000
    0.0390    0.0010    0.1380 C   0  0  0  0  0  0  0  0  0  0  0  0
    0.7020    0.4330    1.2940 C   0  0  0  0  0  0  0  0  0  0  0  0
    0.0910    0.8060   -1.0090 C   0  0  0  0  0  0  0  0  0  0  0  0
    1.3870    1.6560    1.2490 C   0  0  0  0  0  0  0  0  0  0  0  0
    0.7520    1.9770   -1.0430 N   0  0  0  0  0  0  0  0  0  0  0  0
    1.4000    2.4280    0.0560 C   0  0  0  0  0  0  0  0  0  0  0  0
    2.1360    3.7460   -0.0270 C   0  0  0  0  0  0  0  0  0  0  0  0
    3.1250    3.9300    0.8850 N   0  0  0  0  0  0  0  0  0  0  0  0
    1.8480    4.7850   -0.9610 C   0  0  0  0  0  0  0  0  0  0  0  0
    3.8410    5.0730    0.9000 C   0  0  0  0  0  0  0  0  0  0  0  0
    0.8810    4.7660   -1.9060 N   0  0  0  0  0  0  0  0  0  0  0  0
    2.5880    5.9610   -0.9400 C   0  0  0  0  0  0  0  0  0  0  0  0
    3.6130    6.1330    0.0070 C   0  0  0  0  0  0  0  0  0  0  0  0
    1.0090    6.1950   -2.6910 S   0  0  0  0  0  0  0  0  0  0  0  0
    2.2570    6.8700   -1.8800 N   0  0  0  0  0  0  0  0  0  0  0  0
    4.4200    7.3520    0.0830 C   0  0  0  0  0  0  0  0  0  0  0  0
    6.1760    7.3140   -0.1220 B   0  0  0  0  0  0  0  0  0  0  0  0
    3.8980    8.6870    0.3320 C   0  0  0  0  0  0  0  0  0  0  0  0
    6.1950    9.0780    0.0060 C   0  0  2  0  0  0  0  0  0  0  0  0
    2.6170    8.9460    0.6620 N   0  0  0  0  0  0  0  0  0  0  0  0
    4.8890    9.6680    0.2970 C   0  0  0  0  0  0  0  0  0  0  0  0
    7.3910    9.8640   -0.1820 C   0  0  0  0  0  0  0  0  0  0  0  0
    2.3460   10.2380    0.9440 C   0  0  0  0  0  0  0  0  0  0  0  0
    4.6330   10.9540    0.6170 N   0  0  0  0  0  0  0  0  0  0  0  0
    7.3920   11.1890   -0.5510 C   0  0  0  0  0  0  0  0  0  0  0  0
    9.0200    9.2390    0.0430 S   0  0  0  0  0  0  0  0  0  0  0  0
    3.3470   11.2340    0.9260 C   0  0  0  0  0  0  0  0  0  0  0  0
    8.7080   11.7250   -0.6510 C   0  0  0  0  0  0  0  0  0  0  0  0
    9.6950   10.8140   -0.3600 C   0  0  0  0  0  0  0  0  0  0  0  0
   -0.5040   -0.9390    0.1280 H   0  0  0  0  0  0  0  0  0  0  0  0
    0.6850   -0.1630    2.2030 H   0  0  0  0  0  0  0  0  0  0  0  0
   -0.4100    0.5050   -1.9280 H   0  0  0  0  0  0  0  0  0  0  0  0
    1.9040    2.0100    2.1360 H   0  0  0  0  0  0  0  0  0  0  0  0
    4.6140    5.1450    1.6640 H   0  0  0  0  0  0  0  0  0  0  0  0
    1.3160   10.4780    1.2040 H   0  0  0  0  0  0  0  0  0  0  0  0
    6.5120   11.7780   -0.7760 H   0  0  0  0  0  0  0  0  0  0  0  0
    3.1170   12.2700    1.1730 H   0  0  0  0  0  0  0  0  0  0  0  0
    8.9040   12.7540   -0.9350 H   0  0  0  0  0  0  0  0  0  0  0  0
   10.7680   10.9570   -0.3600 H   0  0  0  0  0  0  0  0  0  0  0  0
  1  2  2  0  0  0  0
  2 31  1  0  0  0  0
  3  1  1  0  0  0  0
  4  2  1  0  0  0  0
  4 33  1  0  0  0  0
  5  3  2  0  0  0  0
  5  6  1  0  0  0  0
  6  4  2  0  0  0  0
  7  6  1  0  0  0  0
  7  8  2  0  0  0  0
  8 10  1  0  0  0  0
  9 12  1  0  0  0  0
  9  7  1  0  0  0  0
 10 34  1  0  0  0  0
 11  9  2  0  0  0  0
 12 13  1  0  0  0  0
 13 16  1  0  0  0  0
 13 10  2  0  0  0  0
 14 11  1  0  0  0  0
 14 15  1  0  0  0  0
 15 12  2  0  0  0  0
 16 18  1  0  0  0  0
 17 19  1  0  0  0  0
 17 16  2  0  0  0  0
 18 20  1  0  0  0  0
 19 22  1  6  0  0  0
 19 21  1  0  0  0  0
 20 23  2  0  0  0  0
 21 18  2  0  0  0  0
 21 24  1  0  0  0  0
 22 26  1  0  0  0  0
 23 35  1  0  0  0  0
 24 27  2  0  0  0  0
 25 22  2  0  0  0  0
 27 23  1  0  0  0  0
 27 37  1  0  0  0  0
 28 25  1  0  0  0  0
 28 29  2  0  0  0  0
 29 26  1  0  0  0  0
 30  1  1  0  0  0  0
 32  3  1  0  0  0  0
 36 25  1  0  0  0  0
 38 28  1  0  0  0  0
 39 29  1  0  0  0  0
M  END
$$$$
scan_sander_basal_param/min_pdbs/min_pdb_C169_075.pdb
 OpenBabel10021702103D

 39 44  0  0  1  0  0  0  0  0999 V2000
   -0.0240    0.0450    0.1840 C   0  0  0  0  0  0  0  0  0  0  0  0
    0.4900    0.5760    1.3740 C   0  0  0  0  0  0  0  0  0  0  0  0
    0.1880    0.7450   -1.0120 C   0  0  0  0  0  0  0  0  0  0  0  0
    1.1950    1.7870    1.3120 C   0  0  0  0  0  0  0  0  0  0  0  0
    0.8660    1.9060   -1.0620 N   0  0  0  0  0  0  0  0  0  0  0  0
    1.3730    2.4500    0.0680 C   0  0  0  0  0  0  0  0  0  0  0  0
    2.1340    3.7530   -0.0330 C   0  0  0  0  0  0  0  0  0  0  0  0
    3.0000    4.0130    0.9800 N   0  0  0  0  0  0  0  0  0  0  0  0
    1.9840    4.7060   -1.0840 C   0  0  0  0  0  0  0  0  0  0  0  0
    3.7260    5.1500    0.9880 C   0  0  0  0  0  0  0  0  0  0  0  0
    1.1430    4.6110   -2.1390 N   0  0  0  0  0  0  0  0  0  0  0  0
    2.7350    5.8740   -1.0710 C   0  0  0  0  0  0  0  0  0  0  0  0
    3.6340    6.1220   -0.0210 C   0  0  0  0  0  0  0  0  0  0  0  0
    1.3890    5.9710   -3.0160 S   0  0  0  0  0  0  0  0  0  0  0  0
    2.5350    6.7070   -2.1120 N   0  0  0  0  0  0  0  0  0  0  0  0
    4.4390    7.3400    0.0400 C   0  0  0  0  0  0  0  0  0  0  0  0
    6.1690    7.3320   -0.3230 B   0  0  0  0  0  0  0  0  0  0  0  0
    3.9290    8.6510    0.4020 C   0  0  0  0  0  0  0  0  0  0  0  0
    6.1910    9.0840   -0.0740 C   0  0  2  0  0  0  0  0  0  0  0  0
    2.6670    8.8770    0.8190 N   0  0  0  0  0  0  0  0  0  0  0  0
    4.9070    9.6430    0.3500 C   0  0  0  0  0  0  0  0  0  0  0  0
    7.3700    9.8890   -0.2920 C   0  0  0  0  0  0  0  0  0  0  0  0
    2.4060   10.1500    1.1860 C   0  0  0  0  0  0  0  0  0  0  0  0
    4.6620   10.9080    0.7520 N   0  0  0  0  0  0  0  0  0  0  0  0
    7.3430   11.2370   -0.5660 C   0  0  0  0  0  0  0  0  0  0  0  0
    9.0110    9.2600   -0.2270 S   0  0  0  0  0  0  0  0  0  0  0  0
    3.3970   11.1570    1.1580 C   0  0  0  0  0  0  0  0  0  0  0  0
    8.6490   11.7860   -0.7220 C   0  0  0  0  0  0  0  0  0  0  0  0
    9.6550   10.8630   -0.5660 C   0  0  0  0  0  0  0  0  0  0  0  0
   -0.5760   -0.8900    0.1850 H   0  0  0  0  0  0  0  0  0  0  0  0
    0.3470    0.0620    2.3210 H   0  0  0  0  0  0  0  0  0  0  0  0
   -0.1950    0.3670   -1.9590 H   0  0  0  0  0  0  0  0  0  0  0  0
    1.5980    2.2160    2.2240 H   0  0  0  0  0  0  0  0  0  0  0  0
    4.3970    5.2880    1.8340 H   0  0  0  0  0  0  0  0  0  0  0  0
    1.3930   10.3660    1.5210 H   0  0  0  0  0  0  0  0  0  0  0  0
    6.4500   11.8360   -0.6880 H   0  0  0  0  0  0  0  0  0  0  0  0
    3.1750   12.1750    1.4720 H   0  0  0  0  0  0  0  0  0  0  0  0
    8.8230   12.8330   -0.9470 H   0  0  0  0  0  0  0  0  0  0  0  0
   10.7240   11.0110   -0.6320 H   0  0  0  0  0  0  0  0  0  0  0  0
  1 30  1  0  0  0  0
  1  2  2  0  0  0  0
  2 31  1  0  0  0  0
  3  1  1  0  0  0  0
  4  2  1  0  0  0  0
  4 33  1  0  0  0  0
  5  3  2  0  0  0  0
  5  6  1  0  0  0  0
  6  4  2  0  0  0  0
  7  6  1  0  0  0  0
  7  8  2  0  0  0  0
  8 10  1  0  0  0  0
  9 12  1  0  0  0  0
  9  7  1  0  0  0  0
 10 34  1  0  0  0  0
 11  9  2  0  0  0  0
 12 13  1  0  0  0  0
 13 16  1  0  0  0  0
 13 10  2  0  0  0  0
 14 11  1  0  0  0  0
 14 15  1  0  0  0  0
 15 12  2  0  0  0  0
 16 18  1  0  0  0  0
 17 19  1  0  0  0  0
 17 16  2  0  0  0  0
 18 20  1  0  0  0  0
 19 22  1  6  0  0  0
 19 21  1  0  0  0  0
 20 23  2  0  0  0  0
 21 18  2  0  0  0  0
 21 24  1  0  0  0  0
 22 26  1  0  0  0  0
 23 35  1  0  0  0  0
 24 27  2  0  0  0  0
 25 22  2  0  0  0  0
 27 23  1  0  0  0  0
 27 37  1  0  0  0  0
 28 29  2  0  0  0  0
 28 25  1  0  0  0  0
 29 26  1  0  0  0  0
 32  3  1  0  0  0  0
 36 25  1  0  0  0  0
 38 28  1  0  0  0  0
 39 29  1  0  0  0  0
M  END
$$$$
scan_sander_basal_param/min_pdbs/min_pdb_C169_090.pdb
 OpenBabel10021702103D

 39 44  0  0  1  0  0  0  0  0999 V2000
   -0.0810    0.0830    0.2080 C   0  0  0  0  0  0  0  0  0  0  0  0
    0.2650    0.7230    1.4050 C   0  0  0  0  0  0  0  0  0  0  0  0
    0.3060    0.6700   -1.0050 C   0  0  0  0  0  0  0  0  0  0  0  0
    0.9840    1.9250    1.3330 C   0  0  0  0  0  0  0  0  0  0  0  0
    0.9980    1.8220   -1.0650 N   0  0  0  0  0  0  0  0  0  0  0  0
    1.3450    2.4690    0.0710 C   0  0  0  0  0  0  0  0  0  0  0  0
    2.1270    3.7590   -0.0400 C   0  0  0  0  0  0  0  0  0  0  0  0
    2.8440    4.1140    1.0570 N   0  0  0  0  0  0  0  0  0  0  0  0
    2.1380    4.6100   -1.1860 C   0  0  0  0  0  0  0  0  0  0  0  0
    3.5740    5.2480    1.0630 C   0  0  0  0  0  0  0  0  0  0  0  0
    1.4540    4.4170   -2.3360 N   0  0  0  0  0  0  0  0  0  0  0  0
    2.8940    5.7750   -1.1740 C   0  0  0  0  0  0  0  0  0  0  0  0
    3.6370    6.1210   -0.0350 C   0  0  0  0  0  0  0  0  0  0  0  0
    1.8370    5.6900   -3.2900 S   0  0  0  0  0  0  0  0  0  0  0  0
    2.8520    6.5090   -2.3040 N   0  0  0  0  0  0  0  0  0  0  0  0
    4.4410    7.3390    0.0230 C   0  0  0  0  0  0  0  0  0  0  0  0
    6.1370    7.3600   -0.4730 B   0  0  0  0  0  0  0  0  0  0  0  0
    3.9560    8.6270    0.4860 C   0  0  0  0  0  0  0  0  0  0  0  0
    6.1760    9.0970   -0.1340 C   0  0  2  0  0  0  0  0  0  0  0  0
    2.7260    8.8250    0.9990 N   0  0  0  0  0  0  0  0  0  0  0  0
    4.9260    9.6260    0.4120 C   0  0  0  0  0  0  0  0  0  0  0  0
    7.3340    9.9180   -0.3950 C   0  0  0  0  0  0  0  0  0  0  0  0
    2.4880   10.0780    1.4460 C   0  0  0  0  0  0  0  0  0  0  0  0
    4.7060   10.8690    0.8900 N   0  0  0  0  0  0  0  0  0  0  0  0
    7.2870   11.2770   -0.5960 C   0  0  0  0  0  0  0  0  0  0  0  0
    8.9760    9.2920   -0.4840 S   0  0  0  0  0  0  0  0  0  0  0  0
    3.4730   11.0900    1.3970 C   0  0  0  0  0  0  0  0  0  0  0  0
    8.5780   11.8400   -0.8170 C   0  0  0  0  0  0  0  0  0  0  0  0
    9.5930   10.9140   -0.7840 C   0  0  0  0  0  0  0  0  0  0  0  0
   -0.6380   -0.8490    0.2170 H   0  0  0  0  0  0  0  0  0  0  0  0
   -0.0170    0.2990    2.3660 H   0  0  0  0  0  0  0  0  0  0  0  0
    0.0580    0.2040   -1.9580 H   0  0  0  0  0  0  0  0  0  0  0  0
    1.2590    2.4380    2.2500 H   0  0  0  0  0  0  0  0  0  0  0  0
    4.1210    5.4660    1.9800 H   0  0  0  0  0  0  0  0  0  0  0  0
    1.5010   10.2720    1.8610 H   0  0  0  0  0  0  0  0  0  0  0  0
    6.3880   11.8780   -0.6200 H   0  0  0  0  0  0  0  0  0  0  0  0
    3.2710   12.0910    1.7750 H   0  0  0  0  0  0  0  0  0  0  0  0
    8.7350   12.8980   -0.9990 H   0  0  0  0  0  0  0  0  0  0  0  0
   10.6550   11.0700   -0.9200 H   0  0  0  0  0  0  0  0  0  0  0  0
  1 30  1  0  0  0  0
  1  2  2  0  0  0  0
  2 31  1  0  0  0  0
  3  1  1  0  0  0  0
  4  2  1  0  0  0  0
  4 33  1  0  0  0  0
  5  3  2  0  0  0  0
  5  6  1  0  0  0  0
  6  4  2  0  0  0  0
  7  6  1  0  0  0  0
  7  8  2  0  0  0  0
  8 10  1  0  0  0  0
  9 12  1  0  0  0  0
  9  7  1  0  0  0  0
 10 34  1  0  0  0  0
 11  9  2  0  0  0  0
 12 13  1  0  0  0  0
 13 16  1  0  0  0  0
 13 10  2  0  0  0  0
 14 11  1  0  0  0  0
 14 15  1  0  0  0  0
 15 12  2  0  0  0  0
 16 18  1  0  0  0  0
 17 19  1  0  0  0  0
 17 16  2  0  0  0  0
 18 20  1  0  0  0  0
 19 22  1  6  0  0  0
 19 21  1  0  0  0  0
 20 23  2  0  0  0  0
 21 18  2  0  0  0  0
 21 24  1  0  0  0  0
 23 35  1  0  0  0  0
 24 27  2  0  0  0  0
 25 22  2  0  0  0  0
 26 22  1  0  0  0  0
 27 23  1  0  0  0  0
 27 37  1  0  0  0  0
 28 29  2  0  0  0  0
 28 25  1  0  0  0  0
 29 26  1  0  0  0  0
 32  3  1  0  0  0  0
 36 25  1  0  0  0  0
 38 28  1  0  0  0  0
 39 29  1  0  0  0  0
M  END
$$$$
scan_sander_basal_param/min_pdbs/min_pdb_C169_105.pdb
 OpenBabel10021702103D

 39 44  0  0  1  0  0  0  0  0999 V2000
   -0.1400    0.1210    0.2230 C   0  0  0  0  0  0  0  0  0  0  0  0
    0.0370    0.8730    1.3910 C   0  0  0  0  0  0  0  0  0  0  0  0
    0.4230    0.5910   -0.9720 C   0  0  0  0  0  0  0  0  0  0  0  0
    0.7700    2.0650    1.3100 C   0  0  0  0  0  0  0  0  0  0  0  0
    1.1270    1.7360   -1.0410 N   0  0  0  0  0  0  0  0  0  0  0  0
    1.3140    2.4890    0.0670 C   0  0  0  0  0  0  0  0  0  0  0  0
    2.1160    3.7660   -0.0520 C   0  0  0  0  0  0  0  0  0  0  0  0
    2.6710    4.2260    1.0980 N   0  0  0  0  0  0  0  0  0  0  0  0
    2.3000    4.5040   -1.2590 C   0  0  0  0  0  0  0  0  0  0  0  0
    3.4050    5.3580    1.1020 C   0  0  0  0  0  0  0  0  0  0  0  0
    1.7850    4.2010   -2.4720 N   0  0  0  0  0  0  0  0  0  0  0  0
    3.0580    5.6670   -1.2490 C   0  0  0  0  0  0  0  0  0  0  0  0
    3.6340    6.1230   -0.0530 C   0  0  0  0  0  0  0  0  0  0  0  0
    2.3130    5.3790   -3.4780 S   0  0  0  0  0  0  0  0  0  0  0  0
    3.1850    6.2910   -2.4380 N   0  0  0  0  0  0  0  0  0  0  0  0
    4.4360    7.3430    0.0050 C   0  0  0  0  0  0  0  0  0  0  0  0
    6.0910    7.3980   -0.6150 B   0  0  0  0  0  0  0  0  0  0  0  0
    3.9850    8.6050    0.5640 C   0  0  0  0  0  0  0  0  0  0  0  0
    6.1540    9.1150   -0.1900 C   0  0  2  0  0  0  0  0  0  0  0  0
    2.7930    8.7740    1.1710 N   0  0  0  0  0  0  0  0  0  0  0  0
    4.9460    9.6110    0.4700 C   0  0  0  0  0  0  0  0  0  0  0  0
    7.2910    9.9520   -0.4900 C   0  0  0  0  0  0  0  0  0  0  0  0
    2.5870   10.0020    1.6940 C   0  0  0  0  0  0  0  0  0  0  0  0
    4.7600   10.8280    1.0230 N   0  0  0  0  0  0  0  0  0  0  0  0
    7.2310   11.3200   -0.6160 C   0  0  0  0  0  0  0  0  0  0  0  0
    8.9220    9.3360   -0.7280 S   0  0  0  0  0  0  0  0  0  0  0  0
    3.5650   11.0200    1.6260 C   0  0  0  0  0  0  0  0  0  0  0  0
    8.5030   11.8960   -0.9000 C   0  0  0  0  0  0  0  0  0  0  0  0
    9.5170   10.9730   -0.9860 C   0  0  0  0  0  0  0  0  0  0  0  0
   -0.7010   -0.8080    0.2390 H   0  0  0  0  0  0  0  0  0  0  0  0
   -0.3840    0.5410    2.3370 H   0  0  0  0  0  0  0  0  0  0  0  0
    0.3100    0.0360   -1.9030 H   0  0  0  0  0  0  0  0  0  0  0  0
    0.9150    2.6640    2.2040 H   0  0  0  0  0  0  0  0  0  0  0  0
    3.8170    5.6650    2.0630 H   0  0  0  0  0  0  0  0  0  0  0  0
    1.6310   10.1720    2.1870 H   0  0  0  0  0  0  0  0  0  0  0  0
    6.3330   11.9180   -0.5450 H   0  0  0  0  0  0  0  0  0  0  0  0
    3.3900   12.0000    2.0660 H   0  0  0  0  0  0  0  0  0  0  0  0
    8.6480   12.9630   -1.0370 H   0  0  0  0  0  0  0  0  0  0  0  0
   10.5670   11.1390   -1.1890 H   0  0  0  0  0  0  0  0  0  0  0  0
  1 30  1  0  0  0  0
  1  2  2  0  0  0  0
  2 31  1  0  0  0  0
  3  1  1  0  0  0  0
  4  2  1  0  0  0  0
  4 33  1  0  0  0  0
  5  3  2  0  0  0  0
  5  6  1  0  0  0  0
  6  4  2  0  0  0  0
  7  6  1  0  0  0  0
  7  8  2  0  0  0  0
  8 10  1  0  0  0  0
  9 12  1  0  0  0  0
  9  7  1  0  0  0  0
 10 34  1  0  0  0  0
 11  9  2  0  0  0  0
 12 13  1  0  0  0  0
 13 16  1  0  0  0  0
 13 10  2  0  0  0  0
 14 11  1  0  0  0  0
 14 15  1  0  0  0  0
 15 12  2  0  0  0  0
 16 18  1  0  0  0  0
 17 19  1  0  0  0  0
 17 16  2  0  0  0  0
 18 20  1  0  0  0  0
 19 22  1  6  0  0  0
 19 21  1  0  0  0  0
 20 23  2  0  0  0  0
 21 18  2  0  0  0  0
 21 24  1  0  0  0  0
 23 35  1  0  0  0  0
 24 27  2  0  0  0  0
 25 36  1  0  0  0  0
 25 22  2  0  0  0  0
 26 22  1  0  0  0  0
 27 23  1  0  0  0  0
 27 37  1  0  0  0  0
 28 25  1  0  0  0  0
 29 28  2  0  0  0  0
 29 26  1  0  0  0  0
 32  3  1  0  0  0  0
 38 28  1  0  0  0  0
 39 29  1  0  0  0  0
M  END
$$$$
scan_sander_basal_param/min_pdbs/min_pdb_C169_120.pdb
 OpenBabel10021702103D

 39 44  0  0  1  0  0  0  0  0999 V2000
   -0.5900    0.4080    0.1420 C   0  0  0  0  0  0  0  0  0  0  0  0
   -0.7840    1.3890   -0.8380 C   0  0  0  0  0  0  0  0  0  0  0  0
    0.4090    0.6070    1.1050 C   0  0  0  0  0  0  0  0  0  0  0  0
    0.0340    2.5270   -0.8110 C   0  0  0  0  0  0  0  0  0  0  0  0
    1.1890    1.7030    1.1240 N   0  0  0  0  0  0  0  0  0  0  0  0
    1.0320    2.6690    0.1910 C   0  0  0  0  0  0  0  0  0  0  0  0
    1.9260    3.8870    0.2510 C   0  0  0  0  0  0  0  0  0  0  0  0
    1.4520    5.0000   -0.3650 N   0  0  0  0  0  0  0  0  0  0  0  0
    3.2060    3.9300    0.8790 C   0  0  0  0  0  0  0  0  0  0  0  0
    2.1730    6.1410   -0.3710 C   0  0  0  0  0  0  0  0  0  0  0  0
    3.8300    2.9010    1.4960 N   0  0  0  0  0  0  0  0  0  0  0  0
    3.9420    5.1080    0.8720 C   0  0  0  0  0  0  0  0  0  0  0  0
    3.4330    6.2540    0.2400 C   0  0  0  0  0  0  0  0  0  0  0  0
    5.2570    3.5060    2.0200 S   0  0  0  0  0  0  0  0  0  0  0  0
    5.1380    5.0500    1.4940 N   0  0  0  0  0  0  0  0  0  0  0  0
    4.1720    7.5170    0.2000 C   0  0  2  0  0  0  0  0  0  0  0  0
    4.6290    8.3730    1.6810 B   0  0  0  0  0  0  0  0  0  0  0  0
    4.5950    8.1980   -1.0120 C   0  0  0  0  0  0  0  0  0  0  0  0
    5.4400    9.5910    0.6860 C   0  0  0  0  0  0  0  0  0  0  0  0
    4.2890    7.7790   -2.2560 N   0  0  0  0  0  0  0  0  0  0  0  0
    5.3010    9.3730   -0.7540 C   0  0  0  0  0  0  0  0  0  0  0  0
    6.1880   10.6880    1.2510 C   0  0  0  0  0  0  0  0  0  0  0  0
    4.7120    8.5860   -3.2540 C   0  0  0  0  0  0  0  0  0  0  0  0
    5.6950   10.2010   -1.7440 N   0  0  0  0  0  0  0  0  0  0  0  0
    7.1870   11.3640    0.5900 C   0  0  0  0  0  0  0  0  0  0  0  0
    5.9200   11.3230    2.8700 S   0  0  0  0  0  0  0  0  0  0  0  0
    5.4040    9.7910   -2.9990 C   0  0  0  0  0  0  0  0  0  0  0  0
    7.7490   12.4110    1.3770 C   0  0  0  0  0  0  0  0  0  0  0  0
    7.1800   12.5280    2.6220 C   0  0  0  0  0  0  0  0  0  0  0  0
   -1.2010   -0.4900    0.1590 H   0  0  0  0  0  0  0  0  0  0  0  0
   -1.5490    1.2710   -1.6020 H   0  0  0  0  0  0  0  0  0  0  0  0
    0.5910   -0.1310    1.8850 H   0  0  0  0  0  0  0  0  0  0  0  0
   -0.0980    3.2970   -1.5650 H   0  0  0  0  0  0  0  0  0  0  0  0
    1.7250    6.9910   -0.8850 H   0  0  0  0  0  0  0  0  0  0  0  0
    4.4830    8.2710   -4.2700 H   0  0  0  0  0  0  0  0  0  0  0  0
    7.5510   11.1330   -0.4020 H   0  0  0  0  0  0  0  0  0  0  0  0
    5.7260   10.4390   -3.8130 H   0  0  0  0  0  0  0  0  0  0  0  0
    8.5520   13.0480    1.0210 H   0  0  0  0  0  0  0  0  0  0  0  0
    7.4150   13.2310    3.4100 H   0  0  0  0  0  0  0  0  0  0  0  0
  1 30  1  0  0  0  0
  1  3  2  0  0  0  0
  2  4  2  0  0  0  0
  2  1  1  0  0  0  0
  3  5  1  0  0  0  0
  3 32  1  0  0  0  0
  4  6  1  0  0  0  0
  6  7  1  0  0  0  0
  6  5  2  0  0  0  0
  7  9  1  0  0  0  0
  8  7  2  0  0  0  0
  9 11  2  0  0  0  0
 10  8  1  0  0  0  0
 10 13  2  0  0  0  0
 11 14  1  0  0  0  0
 12  9  1  0  0  0  0
 12 15  2  0  0  0  0
 13 12  1  0  0  0  0
 15 14  1  0  0  0  0
 16 13  1  6  0  0  0
 16 17  1  0  0  0  0
 18 21  1  0  0  0  0
 18 16  1  0  0  0  0
 19 22  1  0  0  0  0
 19 17  2  0  0  0  0
 20 18  2  0  0  0  0
 21 19  1  0  0  0  0
 22 26  1  0  0  0  0
 23 27  2  0  0  0  0
 23 20  1  0  0  0  0
 24 21  2  0  0  0  0
 25 22  2  0  0  0  0
 25 28  1  0  0  0  0
 27 24  1  0  0  0  0
 28 29  2  0  0  0  0
 29 26  1  0  0  0  0
 29 39  1  0  0  0  0
 31  2  1  0  0  0  0
 33  4  1  0  0  0  0
 34 10  1  0  0  0  0
 35 23  1  0  0  0  0
 36 25  1  0  0  0  0
 37 27  1  0  0  0  0
 38 28  1  0  0  0  0
M  END
$$$$
scan_sander_basal_param/min_pdbs/min_pdb_C169_135.pdb
 OpenBabel10021702103D

 39 44  0  0  1  0  0  0  0  0999 V2000
   -0.5780    0.3890    0.0920 C   0  0  0  0  0  0  0  0  0  0  0  0
   -0.6200    1.2800   -0.9880 C   0  0  0  0  0  0  0  0  0  0  0  0
    0.2790    0.6730    1.1650 C   0  0  0  0  0  0  0  0  0  0  0  0
    0.2000    2.4170   -0.9450 C   0  0  0  0  0  0  0  0  0  0  0  0
    1.0620    1.7670    1.1980 N   0  0  0  0  0  0  0  0  0  0  0  0
    1.0490    2.6470    0.1710 C   0  0  0  0  0  0  0  0  0  0  0  0
    1.9390    3.8670    0.2510 C   0  0  0  0  0  0  0  0  0  0  0  0
    1.5700    4.9200   -0.5200 N   0  0  0  0  0  0  0  0  0  0  0  0
    3.1190    3.9670    1.0450 C   0  0  0  0  0  0  0  0  0  0  0  0
    2.2970    6.0560   -0.5240 C   0  0  0  0  0  0  0  0  0  0  0  0
    3.6400    2.9920    1.8240 N   0  0  0  0  0  0  0  0  0  0  0  0
    3.8620    5.1420    1.0420 C   0  0  0  0  0  0  0  0  0  0  0  0
    3.4600    6.2340    0.2490 C   0  0  0  0  0  0  0  0  0  0  0  0
    4.9900    3.6320    2.4860 S   0  0  0  0  0  0  0  0  0  0  0  0
    4.9650    5.1260    1.8200 N   0  0  0  0  0  0  0  0  0  0  0  0
    4.2080    7.4980    0.1980 C   0  0  2  0  0  0  0  0  0  0  0  0
    4.7940    8.2920    1.6710 B   0  0  0  0  0  0  0  0  0  0  0  0
    4.5370    8.2390   -1.0120 C   0  0  0  0  0  0  0  0  0  0  0  0
    5.5090    9.5640    0.6730 C   0  0  0  0  0  0  0  0  0  0  0  0
    4.1630    7.8660   -2.2540 N   0  0  0  0  0  0  0  0  0  0  0  0
    5.2580    9.4070   -0.7580 C   0  0  0  0  0  0  0  0  0  0  0  0
    6.2870   10.6460    1.2300 C   0  0  0  0  0  0  0  0  0  0  0  0
    4.5170    8.7130   -3.2440 C   0  0  0  0  0  0  0  0  0  0  0  0
    5.5860   10.2740   -1.7390 N   0  0  0  0  0  0  0  0  0  0  0  0
    7.2230   11.3680    0.5270 C   0  0  0  0  0  0  0  0  0  0  0  0
    6.1370   11.2010    2.8930 S   0  0  0  0  0  0  0  0  0  0  0  0
    5.2160    9.9130   -2.9880 C   0  0  0  0  0  0  0  0  0  0  0  0
    7.8310   12.3860    1.3170 C   0  0  0  0  0  0  0  0  0  0  0  0
    7.3590   12.4360    2.6060 C   0  0  0  0  0  0  0  0  0  0  0  0
   -1.1950   -0.5030    0.1000 H   0  0  0  0  0  0  0  0  0  0  0  0
   -1.2720    1.0960   -1.8380 H   0  0  0  0  0  0  0  0  0  0  0  0
    0.3410    0.0060    2.0240 H   0  0  0  0  0  0  0  0  0  0  0  0
    0.1840    3.1180   -1.7740 H   0  0  0  0  0  0  0  0  0  0  0  0
    1.9220    6.8560   -1.1610 H   0  0  0  0  0  0  0  0  0  0  0  0
    4.2270    8.4350   -4.2560 H   0  0  0  0  0  0  0  0  0  0  0  0
    7.5130   11.1900   -0.5000 H   0  0  0  0  0  0  0  0  0  0  0  0
    5.4820   10.5940   -3.7950 H   0  0  0  0  0  0  0  0  0  0  0  0
    8.5960   13.0520    0.9310 H   0  0  0  0  0  0  0  0  0  0  0  0
    7.6460   13.1050    3.4060 H   0  0  0  0  0  0  0  0  0  0  0  0
  1 30  1  0  0  0  0
  1  3  2  0  0  0  0
  2  4  2  0  0  0  0
  2  1  1  0  0  0  0
  3  5  1  0  0  0  0
  3 32  1  0  0  0  0
  4  6  1  0  0  0  0
  6  7  1  0  0  0  0
  6  5  2  0  0  0  0
  7  9  1  0  0  0  0
  8  7  2  0  0  0  0
  9 11  2  0  0  0  0
 10  8  1  0  0  0  0
 10 13  2  0  0  0  0
 11 14  1  0  0  0  0
 12  9  1  0  0  0  0
 12 15  2  0  0  0  0
 13 12  1  0  0  0  0
 15 14  1  0  0  0  0
 16 13  1  1  0  0  0
 16 17  1  0  0  0  0
 18 21  1  0  0  0  0
 18 16  1  0  0  0  0
 19 22  1  0  0  0  0
 19 17  2  0  0  0  0
 20 18  2  0  0  0  0
 21 19  1  0  0  0  0
 22 26  1  0  0  0  0
 23 27  2  0  0  0  0
 23 20  1  0  0  0  0
 24 21  2  0  0  0  0
 25 22  2  0  0  0  0
 25 28  1  0  0  0  0
 27 24  1  0  0  0  0
 28 29  2  0  0  0  0
 29 26  1  0  0  0  0
 29 39  1  0  0  0  0
 31  2  1  0  0  0  0
 33  4  1  0  0  0  0
 34 10  1  0  0  0  0
 35 23  1  0  0  0  0
 36 25  1  0  0  0  0
 37 27  1  0  0  0  0
 38 28  1  0  0  0  0
M  END
$$$$
scan_sander_basal_param/min_pdbs/min_pdb_C169_150.pdb
 OpenBabel10021702103D

 39 44  0  0  1  0  0  0  0  0999 V2000
   -0.5720    0.3640    0.0570 C   0  0  0  0  0  0  0  0  0  0  0  0
   -0.4580    1.1570   -1.0910 C   0  0  0  0  0  0  0  0  0  0  0  0
    0.1360    0.7400    1.2080 C   0  0  0  0  0  0  0  0  0  0  0  0
    0.3630    2.2930   -1.0360 C   0  0  0  0  0  0  0  0  0  0  0  0
    0.9200    1.8320    1.2520 N   0  0  0  0  0  0  0  0  0  0  0  0
    1.0570    2.6190    0.1600 C   0  0  0  0  0  0  0  0  0  0  0  0
    1.9430    3.8410    0.2530 C   0  0  0  0  0  0  0  0  0  0  0  0
    1.6940    4.8210   -0.6470 N   0  0  0  0  0  0  0  0  0  0  0  0
    3.0060    4.0130    1.1850 C   0  0  0  0  0  0  0  0  0  0  0  0
    2.4290    5.9520   -0.6550 C   0  0  0  0  0  0  0  0  0  0  0  0
    3.4040    3.1030    2.1030 N   0  0  0  0  0  0  0  0  0  0  0  0
    3.7570    5.1850    1.1810 C   0  0  0  0  0  0  0  0  0  0  0  0
    3.4830    6.2110    0.2460 C   0  0  0  0  0  0  0  0  0  0  0  0
    4.6660    3.7860    2.8820 S   0  0  0  0  0  0  0  0  0  0  0  0
    4.7520    5.2150    2.0940 N   0  0  0  0  0  0  0  0  0  0  0  0
    4.2470    7.4770    0.1790 C   0  0  2  0  0  0  0  0  0  0  0  0
    4.9770    8.2070    1.6270 B   0  0  0  0  0  0  0  0  0  0  0  0
    4.4880    8.2850   -1.0180 C   0  0  0  0  0  0  0  0  0  0  0  0
    5.5890    9.5390    0.6460 C   0  0  0  0  0  0  0  0  0  0  0  0
    4.0640    7.9600   -2.2580 N   0  0  0  0  0  0  0  0  0  0  0  0
    5.2260    9.4450   -0.7640 C   0  0  0  0  0  0  0  0  0  0  0  0
    6.3920   10.6060    1.1980 C   0  0  0  0  0  0  0  0  0  0  0  0
    4.3580    8.8470   -3.2330 C   0  0  0  0  0  0  0  0  0  0  0  0
    5.4990   10.3500   -1.7280 N   0  0  0  0  0  0  0  0  0  0  0  0
    7.2600   11.3840    0.4670 C   0  0  0  0  0  0  0  0  0  0  0  0
    6.3620   11.0680    2.8950 S   0  0  0  0  0  0  0  0  0  0  0  0
    5.0610   10.0400   -2.9670 C   0  0  0  0  0  0  0  0  0  0  0  0
    7.9100   12.3710    1.2640 C   0  0  0  0  0  0  0  0  0  0  0  0
    7.5370   12.3420    2.5860 C   0  0  0  0  0  0  0  0  0  0  0  0
   -1.1960   -0.5240    0.0590 H   0  0  0  0  0  0  0  0  0  0  0  0
   -0.9910    0.9000   -2.0030 H   0  0  0  0  0  0  0  0  0  0  0  0
    0.0730    0.1500    2.1220 H   0  0  0  0  0  0  0  0  0  0  0  0
    0.4670    2.9190   -1.9170 H   0  0  0  0  0  0  0  0  0  0  0  0
    2.1200    6.6890   -1.3920 H   0  0  0  0  0  0  0  0  0  0  0  0
    4.0170    8.6030   -4.2380 H   0  0  0  0  0  0  0  0  0  0  0  0
    7.4750   11.2680   -0.5870 H   0  0  0  0  0  0  0  0  0  0  0  0
    5.2820   10.7540   -3.7590 H   0  0  0  0  0  0  0  0  0  0  0  0
    8.6330   13.0710    0.8580 H   0  0  0  0  0  0  0  0  0  0  0  0
    7.8740   12.9730    3.3970 H   0  0  0  0  0  0  0  0  0  0  0  0
  1 30  1  0  0  0  0
  1  3  2  0  0  0  0
  2  4  2  0  0  0  0
  2  1  1  0  0  0  0
  3  5  1  0  0  0  0
  3 32  1  0  0  0  0
  4  6  1  0  0  0  0
  6  7  1  0  0  0  0
  6  5  2  0  0  0  0
  7  9  1  0  0  0  0
  8  7  2  0  0  0  0
  9 11  2  0  0  0  0
 10  8  1  0  0  0  0
 10 13  2  0  0  0  0
 11 14  1  0  0  0  0
 12  9  1  0  0  0  0
 12 15  2  0  0  0  0
 13 12  1  0  0  0  0
 15 14  1  0  0  0  0
 16 13  1  1  0  0  0
 16 17  1  0  0  0  0
 18 21  1  0  0  0  0
 18 16  1  0  0  0  0
 19 22  1  0  0  0  0
 19 17  2  0  0  0  0
 20 18  2  0  0  0  0
 21 19  1  0  0  0  0
 22 26  1  0  0  0  0
 23 27  2  0  0  0  0
 23 20  1  0  0  0  0
 24 21  2  0  0  0  0
 25 22  2  0  0  0  0
 25 28  1  0  0  0  0
 27 24  1  0  0  0  0
 28 29  2  0  0  0  0
 29 26  1  0  0  0  0
 29 39  1  0  0  0  0
 31  2  1  0  0  0  0
 33  4  1  0  0  0  0
 34 10  1  0  0  0  0
 35 23  1  0  0  0  0
 36 25  1  0  0  0  0
 37 27  1  0  0  0  0
 38 28  1  0  0  0  0
M  END
$$$$
scan_sander_basal_param/min_pdbs/min_pdb_C169_165.pdb
 OpenBabel10021702103D

 39 44  0  0  1  0  0  0  0  0999 V2000
   -0.5170    0.2970    0.0170 C   0  0  0  0  0  0  0  0  0  0  0  0
   -0.2350    0.9820   -1.1710 C   0  0  0  0  0  0  0  0  0  0  0  0
    0.0140    0.7880    1.2190 C   0  0  0  0  0  0  0  0  0  0  0  0
    0.5670    2.1300   -1.1040 C   0  0  0  0  0  0  0  0  0  0  0  0
    0.7830    1.8910    1.2740 N   0  0  0  0  0  0  0  0  0  0  0  0
    1.0780    2.5750    0.1460 C   0  0  0  0  0  0  0  0  0  0  0  0
    1.9410    3.8140    0.2510 C   0  0  0  0  0  0  0  0  0  0  0  0
    1.8260    4.7000   -0.7620 N   0  0  0  0  0  0  0  0  0  0  0  0
    2.8550    4.0910    1.3040 C   0  0  0  0  0  0  0  0  0  0  0  0
    2.5520    5.8350   -0.7730 C   0  0  0  0  0  0  0  0  0  0  0  0
    3.1100    3.2730    2.3490 N   0  0  0  0  0  0  0  0  0  0  0  0
    3.6020    5.2690    1.2950 C   0  0  0  0  0  0  0  0  0  0  0  0
    3.4720    6.2070    0.2350 C   0  0  0  0  0  0  0  0  0  0  0  0
    4.2410    4.0340    3.2430 S   0  0  0  0  0  0  0  0  0  0  0  0
    4.4470    5.3820    2.3440 N   0  0  0  0  0  0  0  0  0  0  0  0
    4.2430    7.4840    0.1560 C   0  0  2  0  0  0  0  0  0  0  0  0
    5.0940    8.1560    1.5710 B   0  0  0  0  0  0  0  0  0  0  0  0
    4.4130    8.3590   -1.0170 C   0  0  0  0  0  0  0  0  0  0  0  0
    5.6510    9.5250    0.6180 C   0  0  0  0  0  0  0  0  0  0  0  0
    3.9090    8.1130   -2.2440 N   0  0  0  0  0  0  0  0  0  0  0  0
    5.1820    9.5000   -0.7600 C   0  0  0  0  0  0  0  0  0  0  0  0
    6.5080   10.5540    1.1600 C   0  0  0  0  0  0  0  0  0  0  0  0
    4.1450    9.0460   -3.1910 C   0  0  0  0  0  0  0  0  0  0  0  0
    5.4000   10.4530   -1.6910 N   0  0  0  0  0  0  0  0  0  0  0  0
    7.3320   11.3580    0.4070 C   0  0  0  0  0  0  0  0  0  0  0  0
    6.6090   10.9300    2.8770 S   0  0  0  0  0  0  0  0  0  0  0  0
    4.8770   10.2170   -2.9120 C   0  0  0  0  0  0  0  0  0  0  0  0
    8.0530   12.2960    1.2020 C   0  0  0  0  0  0  0  0  0  0  0  0
    7.7770   12.2040    2.5450 C   0  0  0  0  0  0  0  0  0  0  0  0
   -1.1330   -0.5960    0.0110 H   0  0  0  0  0  0  0  0  0  0  0  0
   -0.6290    0.6330   -2.1230 H   0  0  0  0  0  0  0  0  0  0  0  0
   -0.1810    0.2850    2.1650 H   0  0  0  0  0  0  0  0  0  0  0  0
    0.7990    2.6730   -2.0150 H   0  0  0  0  0  0  0  0  0  0  0  0
    2.3270    6.4780   -1.6150 H   0  0  0  0  0  0  0  0  0  0  0  0
    3.7340    8.8570   -4.1820 H   0  0  0  0  0  0  0  0  0  0  0  0
    7.4680   11.2940   -0.6640 H   0  0  0  0  0  0  0  0  0  0  0  0
    5.0520   10.9710   -3.6780 H   0  0  0  0  0  0  0  0  0  0  0  0
    8.7550   13.0080    0.7800 H   0  0  0  0  0  0  0  0  0  0  0  0
    8.1820   12.7890    3.3600 H   0  0  0  0  0  0  0  0  0  0  0  0
  1  3  2  0  0  0  0
  2  4  2  0  0  0  0
  2  1  1  0  0  0  0
  3  5  1  0  0  0  0
  3 32  1  0  0  0  0
  4  6  1  0  0  0  0
  6  7  1  0  0  0  0
  6  5  2  0  0  0  0
  7  9  1  0  0  0  0
  8  7  2  0  0  0  0
  9 11  2  0  0  0  0
 10  8  1  0  0  0  0
 10 13  2  0  0  0  0
 11 14  1  0  0  0  0
 12  9  1  0  0  0  0
 12 15  2  0  0  0  0
 13 12  1  0  0  0  0
 15 14  1  0  0  0  0
 16 13  1  1  0  0  0
 16 17  1  0  0  0  0
 18 21  1  0  0  0  0
 18 16  1  0  0  0  0
 19 22  1  0  0  0  0
 19 17  2  0  0  0  0
 20 18  2  0  0  0  0
 21 19  1  0  0  0  0
 22 26  1  0  0  0  0
 23 27  2  0  0  0  0
 23 20  1  0  0  0  0
 24 21  2  0  0  0  0
 25 22  2  0  0  0  0
 25 28  1  0  0  0  0
 27 24  1  0  0  0  0
 28 29  2  0  0  0  0
 29 26  1  0  0  0  0
 29 39  1  0  0  0  0
 30  1  1  0  0  0  0
 31  2  1  0  0  0  0
 33  4  1  0  0  0  0
 34 10  1  0  0  0  0
 35 23  1  0  0  0  0
 36 25  1  0  0  0  0
 37 27  1  0  0  0  0
 38 28  1  0  0  0  0
M  END
$$$$
scan_sander_basal_param/min_pdbs/min_pdb_C169_180.pdb
 OpenBabel10021702103D

 39 44  0  0  1  0  0  0  0  0999 V2000
   -0.3340    0.1800   -0.0720 C   0  0  0  0  0  0  0  0  0  0  0  0
    0.1850    0.7350   -1.2480 C   0  0  0  0  0  0  0  0  0  0  0  0
   -0.0850    0.8300    1.1450 C   0  0  0  0  0  0  0  0  0  0  0  0
    0.9330    1.9170   -1.1530 C   0  0  0  0  0  0  0  0  0  0  0  0
    0.6320    1.9650    1.2280 N   0  0  0  0  0  0  0  0  0  0  0  0
    1.1520    2.5270    0.1120 C   0  0  0  0  0  0  0  0  0  0  0  0
    1.9480    3.8070    0.2450 C   0  0  0  0  0  0  0  0  0  0  0  0
    2.0390    4.5630   -0.8690 N   0  0  0  0  0  0  0  0  0  0  0  0
    2.6080    4.2470    1.4250 C   0  0  0  0  0  0  0  0  0  0  0  0
    2.7170    5.7270   -0.8630 C   0  0  0  0  0  0  0  0  0  0  0  0
    2.6400    3.5680    2.5930 N   0  0  0  0  0  0  0  0  0  0  0  0
    3.3130    5.4520    1.4310 C   0  0  0  0  0  0  0  0  0  0  0  0
    3.3900    6.2630    0.2630 C   0  0  0  0  0  0  0  0  0  0  0  0
    3.5180    4.4850    3.6150 S   0  0  0  0  0  0  0  0  0  0  0  0
    3.8880    5.7290    2.6230 N   0  0  0  0  0  0  0  0  0  0  0  0
    4.1210    7.5690    0.1950 C   0  0  2  0  0  0  0  0  0  0  0  0
    4.9700    8.2500    1.6100 B   0  0  0  0  0  0  0  0  0  0  0  0
    4.2560    8.4760   -0.9620 C   0  0  0  0  0  0  0  0  0  0  0  0
    5.6330    9.5440    0.6260 C   0  0  0  0  0  0  0  0  0  0  0  0
    3.5800    8.3570   -2.1240 N   0  0  0  0  0  0  0  0  0  0  0  0
    5.0980    9.5700   -0.7260 C   0  0  0  0  0  0  0  0  0  0  0  0
    6.6270   10.4730    1.1090 C   0  0  0  0  0  0  0  0  0  0  0  0
    3.7670    9.3320   -3.0380 C   0  0  0  0  0  0  0  0  0  0  0  0
    5.2640   10.5710   -1.6160 N   0  0  0  0  0  0  0  0  0  0  0  0
    7.4900   11.1690    0.2950 C   0  0  0  0  0  0  0  0  0  0  0  0
    6.8680   10.8530    2.8090 S   0  0  0  0  0  0  0  0  0  0  0  0
    4.6030   10.4370   -2.7840 C   0  0  0  0  0  0  0  0  0  0  0  0
    8.3580   12.0270    1.0310 C   0  0  0  0  0  0  0  0  0  0  0  0
    8.1530   11.9810    2.3890 C   0  0  0  0  0  0  0  0  0  0  0  0
   -0.9190   -0.7340   -0.0990 H   0  0  0  0  0  0  0  0  0  0  0  0
    0.0130    0.2610   -2.2120 H   0  0  0  0  0  0  0  0  0  0  0  0
   -0.4720    0.4320    2.0830 H   0  0  0  0  0  0  0  0  0  0  0  0
    1.3460    2.3610   -2.0530 H   0  0  0  0  0  0  0  0  0  0  0  0
    2.7120    6.2150   -1.8270 H   0  0  0  0  0  0  0  0  0  0  0  0
    3.2280    9.2350   -3.9800 H   0  0  0  0  0  0  0  0  0  0  0  0
    7.5500   11.0760   -0.7810 H   0  0  0  0  0  0  0  0  0  0  0  0
    4.7360   11.2280   -3.5210 H   0  0  0  0  0  0  0  0  0  0  0  0
    9.1090   12.6500    0.5570 H   0  0  0  0  0  0  0  0  0  0  0  0
    8.6680   12.5260    3.1690 H   0  0  0  0  0  0  0  0  0  0  0  0
  1  3  2  0  0  0  0
  2  4  2  0  0  0  0
  2  1  1  0  0  0  0
  3  5  1  0  0  0  0
  3 32  1  0  0  0  0
  4  6  1  0  0  0  0
  6  7  1  0  0  0  0
  6  5  2  0  0  0  0
  7  9  1  0  0  0  0
  8 10  1  0  0  0  0
  8  7  2  0  0  0  0
  9 12  1  0  0  0  0
  9 11  2  0  0  0  0
 10 13  2  0  0  0  0
 11 14  1  0  0  0  0
 12 15  2  0  0  0  0
 13 12  1  0  0  0  0
 15 14  1  0  0  0  0
 16 13  1  1  0  0  0
 16 17  1  0  0  0  0
 18 21  1  0  0  0  0
 18 16  1  0  0  0  0
 19 22  1  0  0  0  0
 19 17  2  0  0  0  0
 20 18  2  0  0  0  0
 21 19  1  0  0  0  0
 22 26  1  0  0  0  0
 23 27  2  0  0  0  0
 23 20  1  0  0  0  0
 24 21  2  0  0  0  0
 25 28  1  0  0  0  0
 25 22  2  0  0  0  0
 27 24  1  0  0  0  0
 28 29  2  0  0  0  0
 29 26  1  0  0  0  0
 29 39  1  0  0  0  0
 30  1  1  0  0  0  0
 31  2  1  0  0  0  0
 33  4  1  0  0  0  0
 34 10  1  0  0  0  0
 35 23  1  0  0  0  0
 36 25  1  0  0  0  0
 37 27  1  0  0  0  0
 38 28  1  0  0  0  0
M  END
$$$$
scan_sander_basal_param/min_pdbs/min_pdb_C169_195.pdb
 OpenBabel10021702103D

 39 44  0  0  1  0  0  0  0  0999 V2000
   -0.2230    0.1470   -0.1660 C   0  0  0  0  0  0  0  0  0  0  0  0
    0.4990    0.6070   -1.2740 C   0  0  0  0  0  0  0  0  0  0  0  0
   -0.1940    0.9010    1.0160 C   0  0  0  0  0  0  0  0  0  0  0  0
    1.2200    1.8040   -1.1480 C   0  0  0  0  0  0  0  0  0  0  0  0
    0.4990    2.0490    1.1270 N   0  0  0  0  0  0  0  0  0  0  0  0
    1.2110    2.5210    0.0780 C   0  0  0  0  0  0  0  0  0  0  0  0
    1.9720    3.8190    0.2410 C   0  0  0  0  0  0  0  0  0  0  0  0
    2.2610    4.4800   -0.9020 N   0  0  0  0  0  0  0  0  0  0  0  0
    2.4100    4.3650    1.4800 C   0  0  0  0  0  0  0  0  0  0  0  0
    2.9260    5.6520   -0.8720 C   0  0  0  0  0  0  0  0  0  0  0  0
    2.2250    3.7960    2.6920 N   0  0  0  0  0  0  0  0  0  0  0  0
    3.1060    5.5730    1.5090 C   0  0  0  0  0  0  0  0  0  0  0  0
    3.3860    6.2780    0.3090 C   0  0  0  0  0  0  0  0  0  0  0  0
    2.8950    4.8210    3.7690 S   0  0  0  0  0  0  0  0  0  0  0  0
    3.4440    5.9770    2.7530 N   0  0  0  0  0  0  0  0  0  0  0  0
    4.1150    7.5760    0.2540 C   0  0  2  0  0  0  0  0  0  0  0  0
    5.0460    8.2070    1.6370 B   0  0  0  0  0  0  0  0  0  0  0  0
    4.1770    8.5060   -0.8840 C   0  0  0  0  0  0  0  0  0  0  0  0
    5.6780    9.5040    0.6310 C   0  0  0  0  0  0  0  0  0  0  0  0
    3.3770    8.4420   -1.9700 N   0  0  0  0  0  0  0  0  0  0  0  0
    5.0510    9.5780   -0.6810 C   0  0  0  0  0  0  0  0  0  0  0  0
    6.7300   10.3950    1.0570 C   0  0  0  0  0  0  0  0  0  0  0  0
    3.4960    9.4490   -2.8610 C   0  0  0  0  0  0  0  0  0  0  0  0
    5.1490   10.6110   -1.5450 N   0  0  0  0  0  0  0  0  0  0  0  0
    7.5500   11.0820    0.1930 C   0  0  0  0  0  0  0  0  0  0  0  0
    7.1060   10.7370    2.7410 S   0  0  0  0  0  0  0  0  0  0  0  0
    4.3780   10.5280   -2.6500 C   0  0  0  0  0  0  0  0  0  0  0  0
    8.4940   11.9020    0.8760 C   0  0  0  0  0  0  0  0  0  0  0  0
    8.3890   11.8370    2.2440 C   0  0  0  0  0  0  0  0  0  0  0  0
   -0.7950   -0.7740   -0.2180 H   0  0  0  0  0  0  0  0  0  0  0  0
    0.5010    0.0510   -2.2080 H   0  0  0  0  0  0  0  0  0  0  0  0
   -0.7430    0.5790    1.9010 H   0  0  0  0  0  0  0  0  0  0  0  0
    1.7870    2.1760   -1.9960 H   0  0  0  0  0  0  0  0  0  0  0  0
    3.1310    6.0620   -1.8550 H   0  0  0  0  0  0  0  0  0  0  0  0
    2.8650    9.4000   -3.7470 H   0  0  0  0  0  0  0  0  0  0  0  0
    7.5250   11.0070   -0.8870 H   0  0  0  0  0  0  0  0  0  0  0  0
    4.4550   11.3450   -3.3660 H   0  0  0  0  0  0  0  0  0  0  0  0
    9.2260   12.5130    0.3570 H   0  0  0  0  0  0  0  0  0  0  0  0
    8.9760   12.3520    2.9930 H   0  0  0  0  0  0  0  0  0  0  0  0
  1  3  2  0  0  0  0
  2  4  2  0  0  0  0
  2  1  1  0  0  0  0
  3  5  1  0  0  0  0
  3 32  1  0  0  0  0
  4  6  1  0  0  0  0
  6  7  1  0  0  0  0
  6  5  2  0  0  0  0
  7  9  1  0  0  0  0
  8 10  1  0  0  0  0
  8  7  2  0  0  0  0
  9 12  1  0  0  0  0
  9 11  2  0  0  0  0
 10 13  2  0  0  0  0
 11 14  1  0  0  0  0
 12 15  2  0  0  0  0
 13 12  1  0  0  0  0
 15 14  1  0  0  0  0
 16 13  1  1  0  0  0
 16 17  1  0  0  0  0
 18 21  1  0  0  0  0
 18 16  1  0  0  0  0
 19 22  1  0  0  0  0
 19 17  2  0  0  0  0
 20 18  2  0  0  0  0
 21 19  1  0  0  0  0
 22 26  1  0  0  0  0
 23 27  2  0  0  0  0
 23 20  1  0  0  0  0
 24 21  2  0  0  0  0
 25 28  1  0  0  0  0
 25 22  2  0  0  0  0
 27 24  1  0  0  0  0
 28 29  2  0  0  0  0
 29 26  1  0  0  0  0
 29 39  1  0  0  0  0
 30  1  1  0  0  0  0
 31  2  1  0  0  0  0
 33  4  1  0  0  0  0
 34 10  1  0  0  0  0
 35 23  1  0  0  0  0
 36 25  1  0  0  0  0
 37 27  1  0  0  0  0
 38 28  1  0  0  0  0
M  END
$$$$
scan_sander_basal_param/min_pdbs/min_pdb_C169_210.pdb
 OpenBabel10021702103D

 39 44  0  0  1  0  0  0  0  0999 V2000
   -0.1800    0.1440   -0.2060 C   0  0  0  0  0  0  0  0  0  0  0  0
    0.6860    0.5200   -1.2410 C   0  0  0  0  0  0  0  0  0  0  0  0
   -0.2930    0.9810    0.9140 C   0  0  0  0  0  0  0  0  0  0  0  0
    1.4020    1.7180   -1.1070 C   0  0  0  0  0  0  0  0  0  0  0  0
    0.3970    2.1300    1.0330 N   0  0  0  0  0  0  0  0  0  0  0  0
    1.2450    2.5220    0.0540 C   0  0  0  0  0  0  0  0  0  0  0  0
    1.9970    3.8240    0.2230 C   0  0  0  0  0  0  0  0  0  0  0  0
    2.4420    4.4010   -0.9180 N   0  0  0  0  0  0  0  0  0  0  0  0
    2.2770    4.4520    1.4700 C   0  0  0  0  0  0  0  0  0  0  0  0
    3.1170    5.5670   -0.8810 C   0  0  0  0  0  0  0  0  0  0  0  0
    1.9270    3.9800    2.6880 N   0  0  0  0  0  0  0  0  0  0  0  0
    2.9840    5.6510    1.5060 C   0  0  0  0  0  0  0  0  0  0  0  0
    3.4280    6.2560    0.3080 C   0  0  0  0  0  0  0  0  0  0  0  0
    2.4700    5.0840    3.7620 S   0  0  0  0  0  0  0  0  0  0  0  0
    3.1720    6.1540    2.7450 N   0  0  0  0  0  0  0  0  0  0  0  0
    4.1780    7.5300    0.2620 C   0  0  2  0  0  0  0  0  0  0  0  0
    5.2520    8.0470    1.5820 B   0  0  0  0  0  0  0  0  0  0  0  0
    4.1430    8.5060   -0.8270 C   0  0  0  0  0  0  0  0  0  0  0  0
    5.7600    9.4300    0.6120 C   0  0  0  0  0  0  0  0  0  0  0  0
    3.2720    8.4610   -1.8570 N   0  0  0  0  0  0  0  0  0  0  0  0
    5.0230    9.5740   -0.6390 C   0  0  0  0  0  0  0  0  0  0  0  0
    6.8210   10.3230    1.0110 C   0  0  0  0  0  0  0  0  0  0  0  0
    3.3190    9.5060   -2.7110 C   0  0  0  0  0  0  0  0  0  0  0  0
    5.0500   10.6400   -1.4660 N   0  0  0  0  0  0  0  0  0  0  0  0
    7.5500   11.0920    0.1340 C   0  0  0  0  0  0  0  0  0  0  0  0
    7.3270   10.5600    2.6790 S   0  0  0  0  0  0  0  0  0  0  0  0
    4.2010   10.5900   -2.5150 C   0  0  0  0  0  0  0  0  0  0  0  0
    8.5270   11.8920    0.7950 C   0  0  0  0  0  0  0  0  0  0  0  0
    8.5370   11.7300    2.1590 C   0  0  0  0  0  0  0  0  0  0  0  0
   -0.7540   -0.7750   -0.2670 H   0  0  0  0  0  0  0  0  0  0  0  0
    0.8000   -0.1020   -2.1250 H   0  0  0  0  0  0  0  0  0  0  0  0
   -0.9560    0.7260    1.7400 H   0  0  0  0  0  0  0  0  0  0  0  0
    2.0790    2.0250   -1.8980 H   0  0  0  0  0  0  0  0  0  0  0  0
    3.4490    5.9370   -1.8490 H   0  0  0  0  0  0  0  0  0  0  0  0
    2.6310    9.4830   -3.5550 H   0  0  0  0  0  0  0  0  0  0  0  0
    7.4390   11.0910   -0.9430 H   0  0  0  0  0  0  0  0  0  0  0  0
    4.2180   11.4350   -3.2020 H   0  0  0  0  0  0  0  0  0  0  0  0
    9.1980   12.5590    0.2630 H   0  0  0  0  0  0  0  0  0  0  0  0
    9.1700   12.2110    2.8920 H   0  0  0  0  0  0  0  0  0  0  0  0
  1  3  2  0  0  0  0
  2  4  2  0  0  0  0
  2  1  1  0  0  0  0
  3  5  1  0  0  0  0
  3 32  1  0  0  0  0
  4  6  1  0  0  0  0
  6  7  1  0  0  0  0
  6  5  2  0  0  0  0
  7  9  1  0  0  0  0
  8 10  1  0  0  0  0
  8  7  2  0  0  0  0
  9 12  1  0  0  0  0
  9 11  2  0  0  0  0
 10 13  2  0  0  0  0
 11 14  1  0  0  0  0
 12 15  2  0  0  0  0
 13 12  1  0  0  0  0
 15 14  1  0  0  0  0
 16 13  1  1  0  0  0
 16 17  1  0  0  0  0
 18 21  1  0  0  0  0
 18 16  1  0  0  0  0
 19 22  1  0  0  0  0
 19 17  2  0  0  0  0
 20 18  2  0  0  0  0
 21 19  1  0  0  0  0
 22 26  1  0  0  0  0
 23 27  2  0  0  0  0
 23 20  1  0  0  0  0
 24 21  2  0  0  0  0
 25 28  1  0  0  0  0
 25 22  2  0  0  0  0
 27 24  1  0  0  0  0
 28 29  2  0  0  0  0
 29 26  1  0  0  0  0
 29 39  1  0  0  0  0
 30  1  1  0  0  0  0
 31  2  1  0  0  0  0
 33  4  1  0  0  0  0
 34 10  1  0  0  0  0
 35 23  1  0  0  0  0
 36 25  1  0  0  0  0
 37 27  1  0  0  0  0
 38 28  1  0  0  0  0
M  END
$$$$
scan_sander_basal_param/min_pdbs/min_pdb_C169_225.pdb
 OpenBabel10021702103D

 39 44  0  0  1  0  0  0  0  0999 V2000
   -0.1460    0.1360   -0.2140 C   0  0  0  0  0  0  0  0  0  0  0  0
    0.8440    0.4240   -1.1630 C   0  0  0  0  0  0  0  0  0  0  0  0
   -0.3780    1.0580    0.8170 C   0  0  0  0  0  0  0  0  0  0  0  0
    1.5590    1.6240   -1.0350 C   0  0  0  0  0  0  0  0  0  0  0  0
    0.3120    2.2070    0.9310 N   0  0  0  0  0  0  0  0  0  0  0  0
    1.2770    2.5160    0.0350 C   0  0  0  0  0  0  0  0  0  0  0  0
    2.0250    3.8210    0.1960 C   0  0  0  0  0  0  0  0  0  0  0  0
    2.6140    4.3060   -0.9250 N   0  0  0  0  0  0  0  0  0  0  0  0
    2.1620    4.5390    1.4200 C   0  0  0  0  0  0  0  0  0  0  0  0
    3.3020    5.4660   -0.8920 C   0  0  0  0  0  0  0  0  0  0  0  0
    1.6660    4.1670    2.6210 N   0  0  0  0  0  0  0  0  0  0  0  0
    2.8790    5.7300    1.4510 C   0  0  0  0  0  0  0  0  0  0  0  0
    3.4710    6.2320    0.2760 C   0  0  0  0  0  0  0  0  0  0  0  0
    2.1060    5.3470    3.6630 S   0  0  0  0  0  0  0  0  0  0  0  0
    2.9450    6.3280    2.6590 N   0  0  0  0  0  0  0  0  0  0  0  0
    4.2370    7.4840    0.2380 C   0  0  2  0  0  0  0  0  0  0  0  0
    5.4400    7.8890    1.4770 B   0  0  0  0  0  0  0  0  0  0  0  0
    4.1060    8.5170   -0.7800 C   0  0  0  0  0  0  0  0  0  0  0  0
    5.8320    9.3600    0.5790 C   0  0  0  0  0  0  0  0  0  0  0  0
    3.1770    8.4980   -1.7580 N   0  0  0  0  0  0  0  0  0  0  0  0
    4.9910    9.5800   -0.5960 C   0  0  0  0  0  0  0  0  0  0  0  0
    6.9020   10.2490    0.9640 C   0  0  0  0  0  0  0  0  0  0  0  0
    3.1580    9.5860   -2.5580 C   0  0  0  0  0  0  0  0  0  0  0  0
    4.9550   10.6840   -1.3710 N   0  0  0  0  0  0  0  0  0  0  0  0
    7.5410   11.1070    0.0990 C   0  0  0  0  0  0  0  0  0  0  0  0
    7.5340   10.3680    2.6010 S   0  0  0  0  0  0  0  0  0  0  0  0
    4.0370   10.6730   -2.3630 C   0  0  0  0  0  0  0  0  0  0  0  0
    8.5480   11.8800    0.7460 C   0  0  0  0  0  0  0  0  0  0  0  0
    8.6700   11.6110    2.0870 C   0  0  0  0  0  0  0  0  0  0  0  0
   -0.7240   -0.7800   -0.2750 H   0  0  0  0  0  0  0  0  0  0  0  0
    1.0520   -0.2640   -1.9780 H   0  0  0  0  0  0  0  0  0  0  0  0
   -1.1390    0.8720    1.5740 H   0  0  0  0  0  0  0  0  0  0  0  0
    2.3310    1.8640   -1.7590 H   0  0  0  0  0  0  0  0  0  0  0  0
    3.7410    5.7860   -1.8360 H   0  0  0  0  0  0  0  0  0  0  0  0
    2.4200    9.5940   -3.3590 H   0  0  0  0  0  0  0  0  0  0  0  0
    7.3460   11.1890   -0.9620 H   0  0  0  0  0  0  0  0  0  0  0  0
    4.0000   11.5510   -3.0070 H   0  0  0  0  0  0  0  0  0  0  0  0
    9.1600   12.6070    0.2200 H   0  0  0  0  0  0  0  0  0  0  0  0
    9.3490   12.0500    2.8060 H   0  0  0  0  0  0  0  0  0  0  0  0
  1  3  2  0  0  0  0
  2  4  2  0  0  0  0
  2  1  1  0  0  0  0
  3  5  1  0  0  0  0
  3 32  1  0  0  0  0
  4  6  1  0  0  0  0
  6  7  1  0  0  0  0
  6  5  2  0  0  0  0
  7  9  1  0  0  0  0
  8 10  1  0  0  0  0
  8  7  2  0  0  0  0
  9 12  1  0  0  0  0
  9 11  2  0  0  0  0
 10 13  2  0  0  0  0
 11 14  1  0  0  0  0
 12 15  2  0  0  0  0
 13 12  1  0  0  0  0
 15 14  1  0  0  0  0
 16 13  1  1  0  0  0
 16 17  1  0  0  0  0
 18 21  1  0  0  0  0
 18 16  1  0  0  0  0
 19 22  1  0  0  0  0
 19 17  2  0  0  0  0
 20 18  2  0  0  0  0
 21 19  1  0  0  0  0
 22 26  1  0  0  0  0
 23 27  2  0  0  0  0
 23 20  1  0  0  0  0
 24 21  2  0  0  0  0
 25 28  1  0  0  0  0
 25 22  2  0  0  0  0
 27 24  1  0  0  0  0
 28 29  2  0  0  0  0
 29 26  1  0  0  0  0
 29 39  1  0  0  0  0
 30  1  1  0  0  0  0
 31  2  1  0  0  0  0
 33  4  1  0  0  0  0
 34 10  1  0  0  0  0
 35 23  1  0  0  0  0
 36 25  1  0  0  0  0
 37 27  1  0  0  0  0
 38 28  1  0  0  0  0
M  END
$$$$
scan_sander_basal_param/min_pdbs/min_pdb_C169_240.pdb
 OpenBabel10021702103D

 39 44  0  0  1  0  0  0  0  0999 V2000
   -0.0990    0.1120   -0.2140 C   0  0  0  0  0  0  0  0  0  0  0  0
    1.0100    0.3150   -1.0460 C   0  0  0  0  0  0  0  0  0  0  0  0
   -0.4510    1.1180    0.6960 C   0  0  0  0  0  0  0  0  0  0  0  0
    1.7180    1.5190   -0.9270 C   0  0  0  0  0  0  0  0  0  0  0  0
    0.2350    2.2710    0.8030 N   0  0  0  0  0  0  0  0  0  0  0  0
    1.3120    2.5000    0.0180 C   0  0  0  0  0  0  0  0  0  0  0  0
    2.0500    3.8120    0.1650 C   0  0  0  0  0  0  0  0  0  0  0  0
    2.7880    4.1990   -0.9070 N   0  0  0  0  0  0  0  0  0  0  0  0
    2.0350    4.6300    1.3330 C   0  0  0  0  0  0  0  0  0  0  0  0
    3.4800    5.3570   -0.8810 C   0  0  0  0  0  0  0  0  0  0  0  0
    1.3890    4.3620    2.4900 N   0  0  0  0  0  0  0  0  0  0  0  0
    2.7550    5.8180    1.3560 C   0  0  0  0  0  0  0  0  0  0  0  0
    3.4960    6.2160    0.2310 C   0  0  0  0  0  0  0  0  0  0  0  0
    1.7160    5.6250    3.4770 S   0  0  0  0  0  0  0  0  0  0  0  0
    2.6890    6.5150    2.5090 N   0  0  0  0  0  0  0  0  0  0  0  0
    4.2730    7.4550    0.2030 C   0  0  2  0  0  0  0  0  0  0  0  0
    5.5740    7.7670    1.3620 B   0  0  0  0  0  0  0  0  0  0  0  0
    4.0640    8.5460   -0.7340 C   0  0  0  0  0  0  0  0  0  0  0  0
    5.8870    9.3040    0.5440 C   0  0  0  0  0  0  0  0  0  0  0  0
    3.0740    8.5710   -1.6490 N   0  0  0  0  0  0  0  0  0  0  0  0
    4.9590    9.5980   -0.5480 C   0  0  0  0  0  0  0  0  0  0  0  0
    6.9770   10.1770    0.9120 C   0  0  0  0  0  0  0  0  0  0  0  0
    2.9980    9.7040   -2.3800 C   0  0  0  0  0  0  0  0  0  0  0  0
    4.8690   10.7450   -1.2540 N   0  0  0  0  0  0  0  0  0  0  0  0
    7.5450   11.1020    0.0670 C   0  0  0  0  0  0  0  0  0  0  0  0
    7.7280   10.1850    2.5030 S   0  0  0  0  0  0  0  0  0  0  0  0
    3.8850   10.7850   -2.1800 C   0  0  0  0  0  0  0  0  0  0  0  0
    8.5930   11.8380    0.6920 C   0  0  0  0  0  0  0  0  0  0  0  0
    8.8160   11.4740    1.9980 C   0  0  0  0  0  0  0  0  0  0  0  0
   -0.6770   -0.8060   -0.2720 H   0  0  0  0  0  0  0  0  0  0  0  0
    1.3130   -0.4420   -1.7650 H   0  0  0  0  0  0  0  0  0  0  0  0
   -1.3070    1.0000    1.3600 H   0  0  0  0  0  0  0  0  0  0  0  0
    2.5820    1.6950   -1.5610 H   0  0  0  0  0  0  0  0  0  0  0  0
    4.0400    5.6040   -1.7820 H   0  0  0  0  0  0  0  0  0  0  0  0
    2.2090    9.7530   -3.1290 H   0  0  0  0  0  0  0  0  0  0  0  0
    7.2730   11.2580   -0.9680 H   0  0  0  0  0  0  0  0  0  0  0  0
    3.8020   11.6980   -2.7690 H   0  0  0  0  0  0  0  0  0  0  0  0
    9.1590   12.6070    0.1770 H   0  0  0  0  0  0  0  0  0  0  0  0
    9.5430   11.8690    2.6950 H   0  0  0  0  0  0  0  0  0  0  0  0
  1  3  2  0  0  0  0
  2  4  2  0  0  0  0
  2  1  1  0  0  0  0
  3  5  1  0  0  0  0
  3 32  1  0  0  0  0
  4  6  1  0  0  0  0
  6  7  1  0  0  0  0
  6  5  2  0  0  0  0
  7  9  1  0  0  0  0
  8 10  1  0  0  0  0
  8  7  2  0  0  0  0
  9 12  1  0  0  0  0
  9 11  2  0  0  0  0
 10 13  2  0  0  0  0
 11 14  1  0  0  0  0
 12 15  2  0  0  0  0
 13 12  1  0  0  0  0
 15 14  1  0  0  0  0
 16 13  1  1  0  0  0
 16 17  1  0  0  0  0
 18 21  1  0  0  0  0
 18 16  1  0  0  0  0
 19 22  1  0  0  0  0
 19 17  2  0  0  0  0
 20 18  2  0  0  0  0
 21 19  1  0  0  0  0
 22 26  1  0  0  0  0
 23 27  2  0  0  0  0
 23 20  1  0  0  0  0
 24 21  2  0  0  0  0
 25 28  1  0  0  0  0
 25 22  2  0  0  0  0
 27 24  1  0  0  0  0
 28 29  2  0  0  0  0
 29 26  1  0  0  0  0
 29 39  1  0  0  0  0
 30  1  1  0  0  0  0
 31  2  1  0  0  0  0
 33  4  1  0  0  0  0
 34 10  1  0  0  0  0
 35 23  1  0  0  0  0
 36 25  1  0  0  0  0
 37 27  1  0  0  0  0
 38 28  1  0  0  0  0
M  END
$$$$
scan_sander_basal_param/min_pdbs/min_pdb_C169_255.pdb
 OpenBabel10021702103D

 39 44  0  0  1  0  0  0  0  0999 V2000
   -0.0500    0.0800   -0.2090 C   0  0  0  0  0  0  0  0  0  0  0  0
    1.1670    0.2090   -0.8910 C   0  0  0  0  0  0  0  0  0  0  0  0
   -0.5140    1.1640    0.5490 C   0  0  0  0  0  0  0  0  0  0  0  0
    1.8660    1.4190   -0.7810 C   0  0  0  0  0  0  0  0  0  0  0  0
    0.1630    2.3230    0.6480 N   0  0  0  0  0  0  0  0  0  0  0  0
    1.3430    2.4800    0.0060 C   0  0  0  0  0  0  0  0  0  0  0  0
    2.0680    3.8010    0.1370 C   0  0  0  0  0  0  0  0  0  0  0  0
    2.9540    4.0920   -0.8500 N   0  0  0  0  0  0  0  0  0  0  0  0
    1.8990    4.7200    1.2150 C   0  0  0  0  0  0  0  0  0  0  0  0
    3.6480    5.2490   -0.8300 C   0  0  0  0  0  0  0  0  0  0  0  0
    1.0980    4.5550    2.2920 N   0  0  0  0  0  0  0  0  0  0  0  0
    2.6190    5.9070    1.2320 C   0  0  0  0  0  0  0  0  0  0  0  0
    3.5110    6.2050    0.1890 C   0  0  0  0  0  0  0  0  0  0  0  0
    1.3020    5.9020    3.1990 S   0  0  0  0  0  0  0  0  0  0  0  0
    2.4090    6.7030    2.3000 N   0  0  0  0  0  0  0  0  0  0  0  0
    4.2980    7.4350    0.1700 C   0  0  0  0  0  0  0  0  0  0  0  0
    5.6790    7.6730    1.2500 B   0  0  0  0  0  0  0  0  0  0  0  0
    4.0250    8.5790   -0.6810 C   0  0  0  0  0  0  0  0  0  0  0  0
    5.9370    9.2590    0.5080 C   0  0  2  0  0  0  0  0  0  0  0  0
    2.9750    8.6550   -1.5220 N   0  0  0  0  0  0  0  0  0  0  0  0
    4.9350    9.6190   -0.4960 C   0  0  0  0  0  0  0  0  0  0  0  0
    7.0530   10.1090    0.8510 C   0  0  0  0  0  0  0  0  0  0  0  0
    2.8520    9.8300   -2.1780 C   0  0  0  0  0  0  0  0  0  0  0  0
    4.7990   10.8060   -1.1240 N   0  0  0  0  0  0  0  0  0  0  0  0
    7.5620   11.0850    0.0280 C   0  0  0  0  0  0  0  0  0  0  0  0
    7.9140   10.0190    2.3830 S   0  0  0  0  0  0  0  0  0  0  0  0
    3.7530   10.8990   -1.9760 C   0  0  0  0  0  0  0  0  0  0  0  0
    8.6540   11.7830    0.6220 C   0  0  0  0  0  0  0  0  0  0  0  0
    8.9670   11.3390    1.8830 C   0  0  0  0  0  0  0  0  0  0  0  0
   -0.6240   -0.8390   -0.2660 H   0  0  0  0  0  0  0  0  0  0  0  0
    1.5600   -0.6090   -1.4900 H   0  0  0  0  0  0  0  0  0  0  0  0
   -1.4560    1.1060    1.0940 H   0  0  0  0  0  0  0  0  0  0  0  0
    2.8120    1.5380   -1.3010 H   0  0  0  0  0  0  0  0  0  0  0  0
    4.3330    5.4160   -1.6610 H   0  0  0  0  0  0  0  0  0  0  0  0
    2.0130    9.9220   -2.8660 H   0  0  0  0  0  0  0  0  0  0  0  0
    7.2170   11.3050   -0.9740 H   0  0  0  0  0  0  0  0  0  0  0  0
    3.6320   11.8450   -2.5010 H   0  0  0  0  0  0  0  0  0  0  0  0
    9.1840   12.5840    0.1170 H   0  0  0  0  0  0  0  0  0  0  0  0
    9.7430   11.6910    2.5500 H   0  0  0  0  0  0  0  0  0  0  0  0
  1  3  2  0  0  0  0
  2  4  2  0  0  0  0
  2  1  1  0  0  0  0
  3  5  1  0  0  0  0
  3 32  1  0  0  0  0
  4  6  1  0  0  0  0
  6  7  1  0  0  0  0
  6  5  2  0  0  0  0
  7  9  1  0  0  0  0
  8 10  1  0  0  0  0
  8  7  2  0  0  0  0
  9 12  1  0  0  0  0
  9 11  2  0  0  0  0
 10 13  2  0  0  0  0
 11 14  1  0  0  0  0
 12 15  2  0  0  0  0
 13 12  1  0  0  0  0
 15 14  1  0  0  0  0
 16 13  1  0  0  0  0
 16 17  2  0  0  0  0
 18 21  1  0  0  0  0
 18 16  1  0  0  0  0
 19 22  1  6  0  0  0
 19 17  1  0  0  0  0
 20 18  2  0  0  0  0
 21 19  1  0  0  0  0
 22 26  1  0  0  0  0
 23 27  2  0  0  0  0
 23 20  1  0  0  0  0
 24 21  2  0  0  0  0
 25 28  1  0  0  0  0
 25 22  2  0  0  0  0
 27 24  1  0  0  0  0
 28 29  2  0  0  0  0
 29 26  1  0  0  0  0
 29 39  1  0  0  0  0
 30  1  1  0  0  0  0
 31  2  1  0  0  0  0
 33  4  1  0  0  0  0
 34 10  1  0  0  0  0
 35 23  1  0  0  0  0
 36 25  1  0  0  0  0
 37 27  1  0  0  0  0
 38 28  1  0  0  0  0
M  END
$$$$
scan_sander_basal_param/min_pdbs/min_pdb_C169_270.pdb
 OpenBabel10021702103D

 39 44  0  0  1  0  0  0  0  0999 V2000
   -0.0010    0.0480   -0.2080 C   0  0  0  0  0  0  0  0  0  0  0  0
    1.3030    0.1190   -0.7150 C   0  0  0  0  0  0  0  0  0  0  0  0
   -0.5590    1.1940    0.3760 C   0  0  0  0  0  0  0  0  0  0  0  0
    1.9920    1.3360   -0.6120 C   0  0  0  0  0  0  0  0  0  0  0  0
    0.1080    2.3580    0.4690 N   0  0  0  0  0  0  0  0  0  0  0  0
    1.3700    2.4620   -0.0060 C   0  0  0  0  0  0  0  0  0  0  0  0
    2.0820    3.7910    0.1130 C   0  0  0  0  0  0  0  0  0  0  0  0
    3.1050    3.9950   -0.7560 N   0  0  0  0  0  0  0  0  0  0  0  0
    1.7670    4.8020    1.0690 C   0  0  0  0  0  0  0  0  0  0  0  0
    3.8000    5.1520   -0.7390 C   0  0  0  0  0  0  0  0  0  0  0  0
    0.8180    4.7300    2.0300 N   0  0  0  0  0  0  0  0  0  0  0  0
    2.4890    5.9870    1.0850 C   0  0  0  0  0  0  0  0  0  0  0  0
    3.5240    6.1940    0.1600 C   0  0  0  0  0  0  0  0  0  0  0  0
    0.9040    6.1510    2.8350 S   0  0  0  0  0  0  0  0  0  0  0  0
    2.1360    6.8730    2.0390 N   0  0  0  0  0  0  0  0  0  0  0  0
    4.3190    7.4200    0.1510 C   0  0  0  0  0  0  0  0  0  0  0  0
    5.7730    7.5940    1.1400 B   0  0  0  0  0  0  0  0  0  0  0  0
    3.9910    8.6100   -0.6130 C   0  0  0  0  0  0  0  0  0  0  0  0
    5.9850    9.2200    0.4740 C   0  0  2  0  0  0  0  0  0  0  0  0
    2.8850    8.7340   -1.3730 N   0  0  0  0  0  0  0  0  0  0  0  0
    4.9160    9.6370   -0.4340 C   0  0  0  0  0  0  0  0  0  0  0  0
    7.1260   10.0490    0.7850 C   0  0  0  0  0  0  0  0  0  0  0  0
    2.7210    9.9440   -1.9510 C   0  0  0  0  0  0  0  0  0  0  0  0
    4.7420   10.8580   -0.9830 N   0  0  0  0  0  0  0  0  0  0  0  0
    7.5800   11.0710   -0.0150 C   0  0  0  0  0  0  0  0  0  0  0  0
    8.0940    9.8710    2.2440 S   0  0  0  0  0  0  0  0  0  0  0  0
    3.6390   10.9990   -1.7520 C   0  0  0  0  0  0  0  0  0  0  0  0
    8.7140   11.7330    0.5390 C   0  0  0  0  0  0  0  0  0  0  0  0
    9.1140   11.2180    1.7470 C   0  0  0  0  0  0  0  0  0  0  0  0
   -0.5710   -0.8740   -0.2670 H   0  0  0  0  0  0  0  0  0  0  0  0
    1.7700   -0.7480   -1.1760 H   0  0  0  0  0  0  0  0  0  0  0  0
   -1.5710    1.1810    0.7800 H   0  0  0  0  0  0  0  0  0  0  0  0
    3.0040    1.4110   -0.9970 H   0  0  0  0  0  0  0  0  0  0  0  0
    4.6000    5.2460   -1.4720 H   0  0  0  0  0  0  0  0  0  0  0  0
    1.8360   10.0750   -2.5720 H   0  0  0  0  0  0  0  0  0  0  0  0
    7.1660   11.3480   -0.9760 H   0  0  0  0  0  0  0  0  0  0  0  0
    3.4850   11.9740   -2.2140 H   0  0  0  0  0  0  0  0  0  0  0  0
    9.2100   12.5620    0.0440 H   0  0  0  0  0  0  0  0  0  0  0  0
    9.9370   11.5300    2.3770 H   0  0  0  0  0  0  0  0  0  0  0  0
  1  3  2  0  0  0  0
  2  4  2  0  0  0  0
  2  1  1  0  0  0  0
  3  5  1  0  0  0  0
  3 32  1  0  0  0  0
  4  6  1  0  0  0  0
  6  7  1  0  0  0  0
  6  5  2  0  0  0  0
  7  9  1  0  0  0  0
  8 10  1  0  0  0  0
  8  7  2  0  0  0  0
  9 12  1  0  0  0  0
  9 11  2  0  0  0  0
 10 13  2  0  0  0  0
 11 14  1  0  0  0  0
 12 15  2  0  0  0  0
 13 12  1  0  0  0  0
 15 14  1  0  0  0  0
 16 13  1  0  0  0  0
 16 17  2  0  0  0  0
 18 21  1  0  0  0  0
 18 16  1  0  0  0  0
 19 22  1  6  0  0  0
 19 17  1  0  0  0  0
 20 18  2  0  0  0  0
 21 19  1  0  0  0  0
 22 26  1  0  0  0  0
 23 27  2  0  0  0  0
 23 20  1  0  0  0  0
 24 21  2  0  0  0  0
 25 28  1  0  0  0  0
 25 22  2  0  0  0  0
 27 24  1  0  0  0  0
 28 29  2  0  0  0  0
 29 26  1  0  0  0  0
 29 39  1  0  0  0  0
 30  1  1  0  0  0  0
 31  2  1  0  0  0  0
 33  4  1  0  0  0  0
 34 10  1  0  0  0  0
 35 23  1  0  0  0  0
 36 25  1  0  0  0  0
 37 27  1  0  0  0  0
 38 28  1  0  0  0  0
M  END
$$$$
scan_sander_basal_param/min_pdbs/min_pdb_C169_285.pdb
 OpenBabel10021702103D

 39 44  0  0  1  0  0  0  0  0999 V2000
    0.0440    0.0170   -0.2080 C   0  0  0  0  0  0  0  0  0  0  0  0
    1.4080    0.0480   -0.5230 C   0  0  0  0  0  0  0  0  0  0  0  0
   -0.5830    1.2070    0.1890 C   0  0  0  0  0  0  0  0  0  0  0  0
    2.0850    1.2730   -0.4260 C   0  0  0  0  0  0  0  0  0  0  0  0
    0.0750    2.3770    0.2790 N   0  0  0  0  0  0  0  0  0  0  0  0
    1.3930    2.4440   -0.0160 C   0  0  0  0  0  0  0  0  0  0  0  0
    2.0930    3.7810    0.0910 C   0  0  0  0  0  0  0  0  0  0  0  0
    3.2320    3.9130   -0.6350 N   0  0  0  0  0  0  0  0  0  0  0  0
    1.6510    4.8690    0.9010 C   0  0  0  0  0  0  0  0  0  0  0  0
    3.9280    5.0690   -0.6150 C   0  0  0  0  0  0  0  0  0  0  0  0
    0.5730    4.8750    1.7170 N   0  0  0  0  0  0  0  0  0  0  0  0
    2.3740    6.0550    0.9200 C   0  0  0  0  0  0  0  0  0  0  0  0
    3.5340    6.1850    0.1400 C   0  0  0  0  0  0  0  0  0  0  0  0
    0.5550    6.3600    2.4050 S   0  0  0  0  0  0  0  0  0  0  0  0
    1.8960    7.0150    1.7370 N   0  0  0  0  0  0  0  0  0  0  0  0
    4.3340    7.4090    0.1360 C   0  0  0  0  0  0  0  0  0  0  0  0
    5.8600    7.5250    1.0200 B   0  0  0  0  0  0  0  0  0  0  0  0
    3.9590    8.6410   -0.5350 C   0  0  0  0  0  0  0  0  0  0  0  0
    6.0300    9.1870    0.4370 C   0  0  2  0  0  0  0  0  0  0  0  0
    2.8060    8.8060   -1.2140 N   0  0  0  0  0  0  0  0  0  0  0  0
    4.9000    9.6550   -0.3660 C   0  0  0  0  0  0  0  0  0  0  0  0
    7.1930    9.9960    0.7150 C   0  0  0  0  0  0  0  0  0  0  0  0
    2.6100   10.0460   -1.7130 C   0  0  0  0  0  0  0  0  0  0  0  0
    4.6950   10.9040   -0.8370 N   0  0  0  0  0  0  0  0  0  0  0  0
    7.5930   11.0640   -0.0540 C   0  0  0  0  0  0  0  0  0  0  0  0
    8.2610    9.7340    2.0880 S   0  0  0  0  0  0  0  0  0  0  0  0
    3.5440   11.0880   -1.5200 C   0  0  0  0  0  0  0  0  0  0  0  0
    8.7660   11.6930    0.4560 C   0  0  0  0  0  0  0  0  0  0  0  0
    9.2480   11.1080    1.6010 C   0  0  0  0  0  0  0  0  0  0  0  0
   -0.5200   -0.9090   -0.2690 H   0  0  0  0  0  0  0  0  0  0  0  0
    1.9290   -0.8530   -0.8360 H   0  0  0  0  0  0  0  0  0  0  0  0
   -1.6420    1.2260    0.4420 H   0  0  0  0  0  0  0  0  0  0  0  0
    3.1430    1.3170   -0.6650 H   0  0  0  0  0  0  0  0  0  0  0  0
    4.8260    5.1020   -1.2310 H   0  0  0  0  0  0  0  0  0  0  0  0
    1.6860   10.2110   -2.2660 H   0  0  0  0  0  0  0  0  0  0  0  0
    7.1140   11.3970   -0.9650 H   0  0  0  0  0  0  0  0  0  0  0  0
    3.3640   12.0860   -1.9180 H   0  0  0  0  0  0  0  0  0  0  0  0
    9.2290   12.5500   -0.0230 H   0  0  0  0  0  0  0  0  0  0  0  0
   10.1150   11.3830    2.1880 H   0  0  0  0  0  0  0  0  0  0  0  0
  1  3  2  0  0  0  0
  2  4  2  0  0  0  0
  2  1  1  0  0  0  0
  3  5  1  0  0  0  0
  3 32  1  0  0  0  0
  4  6  1  0  0  0  0
  6  7  1  0  0  0  0
  6  5  2  0  0  0  0
  7  9  1  0  0  0  0
  8 10  1  0  0  0  0
  8  7  2  0  0  0  0
  9 12  1  0  0  0  0
  9 11  2  0  0  0  0
 10 13  2  0  0  0  0
 11 14  1  0  0  0  0
 12 15  2  0  0  0  0
 13 12  1  0  0  0  0
 15 14  1  0  0  0  0
 16 13  1  0  0  0  0
 16 17  2  0  0  0  0
 18 21  1  0  0  0  0
 18 16  1  0  0  0  0
 19 22  1  6  0  0  0
 19 17  1  0  0  0  0
 20 18  2  0  0  0  0
 21 19  1  0  0  0  0
 22 26  1  0  0  0  0
 23 27  2  0  0  0  0
 23 20  1  0  0  0  0
 24 21  2  0  0  0  0
 25 28  1  0  0  0  0
 25 22  2  0  0  0  0
 27 24  1  0  0  0  0
 28 29  2  0  0  0  0
 29 26  1  0  0  0  0
 29 39  1  0  0  0  0
 30  1  1  0  0  0  0
 31  2  1  0  0  0  0
 33  4  1  0  0  0  0
 34 10  1  0  0  0  0
 35 23  1  0  0  0  0
 36 25  1  0  0  0  0
 37 27  1  0  0  0  0
 38 28  1  0  0  0  0
M  END
$$$$
scan_sander_basal_param/min_pdbs/min_pdb_C169_300.pdb
 OpenBabel10021702103D

 39 44  0  0  1  0  0  0  0  0999 V2000
    0.0920   -0.0200   -0.1950 C   0  0  0  0  0  0  0  0  0  0  0  0
    1.4870   -0.0050   -0.3220 C   0  0  0  0  0  0  0  0  0  0  0  0
   -0.5780    1.1940    0.0140 C   0  0  0  0  0  0  0  0  0  0  0  0
    2.1500    1.2280   -0.2330 C   0  0  0  0  0  0  0  0  0  0  0  0
    0.0660    2.3720    0.0970 N   0  0  0  0  0  0  0  0  0  0  0  0
    1.4130    2.4240   -0.0180 C   0  0  0  0  0  0  0  0  0  0  0  0
    2.0970    3.7700    0.0740 C   0  0  0  0  0  0  0  0  0  0  0  0
    3.3250    3.8500   -0.4970 N   0  0  0  0  0  0  0  0  0  0  0  0
    1.5540    4.9170    0.7250 C   0  0  0  0  0  0  0  0  0  0  0  0
    4.0160    5.0090   -0.4770 C   0  0  0  0  0  0  0  0  0  0  0  0
    0.3770    4.9780    1.3880 N   0  0  0  0  0  0  0  0  0  0  0  0
    2.2710    6.1070    0.7430 C   0  0  0  0  0  0  0  0  0  0  0  0
    3.5280    6.1840    0.1190 C   0  0  0  0  0  0  0  0  0  0  0  0
    0.2720    6.5090    1.9530 S   0  0  0  0  0  0  0  0  0  0  0  0
    1.6920    7.1200    1.4210 N   0  0  0  0  0  0  0  0  0  0  0  0
    4.3340    7.4060    0.1070 C   0  0  0  0  0  0  0  0  0  0  0  0
    5.9320    7.4620    0.8620 B   0  0  0  0  0  0  0  0  0  0  0  0
    3.9240    8.6800   -0.4640 C   0  0  0  0  0  0  0  0  0  0  0  0
    6.0650    9.1600    0.3860 C   0  0  2  0  0  0  0  0  0  0  0  0
    2.7400    8.8880   -1.0770 N   0  0  0  0  0  0  0  0  0  0  0  0
    4.8840    9.6790   -0.3030 C   0  0  0  0  0  0  0  0  0  0  0  0
    7.2470    9.9490    0.6400 C   0  0  0  0  0  0  0  0  0  0  0  0
    2.5260   10.1530   -1.4990 C   0  0  0  0  0  0  0  0  0  0  0  0
    4.6650   10.9510   -0.6990 N   0  0  0  0  0  0  0  0  0  0  0  0
    7.6010   11.0690   -0.0760 C   0  0  0  0  0  0  0  0  0  0  0  0
    8.4040    9.5900    1.9170 S   0  0  0  0  0  0  0  0  0  0  0  0
    3.4780   11.1790   -1.3040 C   0  0  0  0  0  0  0  0  0  0  0  0
    8.8070   11.6610    0.3990 C   0  0  0  0  0  0  0  0  0  0  0  0
    9.3630   10.9950    1.4640 C   0  0  0  0  0  0  0  0  0  0  0  0
   -0.4620   -0.9520   -0.2570 H   0  0  0  0  0  0  0  0  0  0  0  0
    2.0420   -0.9250   -0.4860 H   0  0  0  0  0  0  0  0  0  0  0  0
   -1.6620    1.2260    0.1170 H   0  0  0  0  0  0  0  0  0  0  0  0
    3.2300    1.2600   -0.3270 H   0  0  0  0  0  0  0  0  0  0  0  0
    4.9890    4.9950   -0.9680 H   0  0  0  0  0  0  0  0  0  0  0  0
    1.5760   10.3510   -1.9920 H   0  0  0  0  0  0  0  0  0  0  0  0
    7.0640   11.4670   -0.9270 H   0  0  0  0  0  0  0  0  0  0  0  0
    3.2850   12.1970   -1.6390 H   0  0  0  0  0  0  0  0  0  0  0  0
    9.2420   12.5490   -0.0480 H   0  0  0  0  0  0  0  0  0  0  0  0
   10.2680   11.2290    2.0100 H   0  0  0  0  0  0  0  0  0  0  0  0
  1  3  2  0  0  0  0
  2  4  2  0  0  0  0
  2  1  1  0  0  0  0
  3  5  1  0  0  0  0
  3 32  1  0  0  0  0
  4  6  1  0  0  0  0
  6  7  1  0  0  0  0
  6  5  2  0  0  0  0
  7  9  1  0  0  0  0
  8 10  1  0  0  0  0
  8  7  2  0  0  0  0
  9 12  1  0  0  0  0
  9 11  2  0  0  0  0
 10 13  2  0  0  0  0
 11 14  1  0  0  0  0
 12 15  2  0  0  0  0
 13 12  1  0  0  0  0
 15 14  1  0  0  0  0
 16 13  1  0  0  0  0
 16 17  2  0  0  0  0
 18 21  1  0  0  0  0
 18 16  1  0  0  0  0
 19 22  1  6  0  0  0
 19 17  1  0  0  0  0
 20 18  2  0  0  0  0
 21 19  1  0  0  0  0
 22 26  1  0  0  0  0
 23 27  2  0  0  0  0
 23 20  1  0  0  0  0
 24 21  2  0  0  0  0
 25 28  1  0  0  0  0
 25 22  2  0  0  0  0
 27 24  1  0  0  0  0
 28 29  2  0  0  0  0
 29 26  1  0  0  0  0
 29 39  1  0  0  0  0
 30  1  1  0  0  0  0
 31  2  1  0  0  0  0
 33  4  1  0  0  0  0
 34 10  1  0  0  0  0
 35 23  1  0  0  0  0
 36 25  1  0  0  0  0
 37 27  1  0  0  0  0
 38 28  1  0  0  0  0
M  END
$$$$
scan_sander_basal_param/min_pdbs/min_pdb_C169_315.pdb
 OpenBabel10021702103D

 39 44  0  0  1  0  0  0  0  0999 V2000
    0.1560   -0.0720   -0.1530 C   0  0  0  0  0  0  0  0  0  0  0  0
    1.5550   -0.0450   -0.1110 C   0  0  0  0  0  0  0  0  0  0  0  0
   -0.5420    1.1440   -0.1220 C   0  0  0  0  0  0  0  0  0  0  0  0
    2.1950    1.2010   -0.0390 C   0  0  0  0  0  0  0  0  0  0  0  0
    0.0800    2.3350   -0.0540 N   0  0  0  0  0  0  0  0  0  0  0  0
    1.4300    2.3980   -0.0090 C   0  0  0  0  0  0  0  0  0  0  0  0
    2.0900    3.7580    0.0610 C   0  0  0  0  0  0  0  0  0  0  0  0
    3.3780    3.8130   -0.3610 N   0  0  0  0  0  0  0  0  0  0  0  0
    1.4670    4.9440    0.5480 C   0  0  0  0  0  0  0  0  0  0  0  0
    4.0520    4.9800   -0.3510 C   0  0  0  0  0  0  0  0  0  0  0  0
    0.2240    5.0280    1.0730 N   0  0  0  0  0  0  0  0  0  0  0  0
    2.1670    6.1460    0.5540 C   0  0  0  0  0  0  0  0  0  0  0  0
    3.4910    6.1980    0.0740 C   0  0  0  0  0  0  0  0  0  0  0  0
    0.0410    6.5900    1.5200 S   0  0  0  0  0  0  0  0  0  0  0  0
    1.5060    7.1840    1.1070 N   0  0  0  0  0  0  0  0  0  0  0  0
    4.3050    7.4210    0.0370 C   0  0  2  0  0  0  0  0  0  0  0  0
    5.9740    7.4070    0.6310 B   0  0  0  0  0  0  0  0  0  0  0  0
    3.8800    8.7410   -0.4190 C   0  0  0  0  0  0  0  0  0  0  0  0
    6.0860    9.1400    0.3070 C   0  0  0  0  0  0  0  0  0  0  0  0
    2.6850    9.0020   -0.9890 N   0  0  0  0  0  0  0  0  0  0  0  0
    4.8660    9.7160   -0.2580 C   0  0  0  0  0  0  0  0  0  0  0  0
    7.2870    9.9000    0.5620 C   0  0  0  0  0  0  0  0  0  0  0  0
    2.4740   10.2900   -1.3340 C   0  0  0  0  0  0  0  0  0  0  0  0
    4.6540   11.0090   -0.5820 N   0  0  0  0  0  0  0  0  0  0  0  0
    7.6080   11.0820   -0.0630 C   0  0  0  0  0  0  0  0  0  0  0  0
    8.5130    9.4180    1.7290 S   0  0  0  0  0  0  0  0  0  0  0  0
    3.4470   11.2890   -1.1200 C   0  0  0  0  0  0  0  0  0  0  0  0
    8.8460   11.6220    0.3940 C   0  0  0  0  0  0  0  0  0  0  0  0
    9.4570   10.8570    1.3570 C   0  0  0  0  0  0  0  0  0  0  0  0
   -0.3810   -1.0140   -0.2090 H   0  0  0  0  0  0  0  0  0  0  0  0
    2.1320   -0.9670   -0.1330 H   0  0  0  0  0  0  0  0  0  0  0  0
   -1.6310    1.1670   -0.1540 H   0  0  0  0  0  0  0  0  0  0  0  0
    3.2790    1.2420   -0.0030 H   0  0  0  0  0  0  0  0  0  0  0  0
    5.0750    4.9380   -0.7240 H   0  0  0  0  0  0  0  0  0  0  0  0
    1.5100   10.5260   -1.7820 H   0  0  0  0  0  0  0  0  0  0  0  0
    7.0300   11.5620   -0.8410 H   0  0  0  0  0  0  0  0  0  0  0  0
    3.2600   12.3260   -1.3940 H   0  0  0  0  0  0  0  0  0  0  0  0
    9.2620   12.5480    0.0080 H   0  0  0  0  0  0  0  0  0  0  0  0
   10.3930   11.0340    1.8680 H   0  0  0  0  0  0  0  0  0  0  0  0
  1  3  2  0  0  0  0
  1  2  1  0  0  0  0
  2  4  2  0  0  0  0
  3  5  1  0  0  0  0
  4  6  1  0  0  0  0
  4 33  1  0  0  0  0
  5  6  2  0  0  0  0
  6  7  1  0  0  0  0
  7  9  1  0  0  0  0
  8 10  1  0  0  0  0
  8  7  2  0  0  0  0
  9 12  1  0  0  0  0
  9 11  2  0  0  0  0
 10 13  2  0  0  0  0
 11 14  1  0  0  0  0
 12 15  2  0  0  0  0
 13 12  1  0  0  0  0
 15 14  1  0  0  0  0
 16 13  1  1  0  0  0
 16 17  1  0  0  0  0
 18 21  1  0  0  0  0
 18 16  1  0  0  0  0
 19 22  1  0  0  0  0
 19 17  2  0  0  0  0
 20 18  2  0  0  0  0
 21 19  1  0  0  0  0
 22 26  1  0  0  0  0
 23 27  2  0  0  0  0
 23 20  1  0  0  0  0
 24 21  2  0  0  0  0
 25 28  1  0  0  0  0
 25 22  2  0  0  0  0
 27 24  1  0  0  0  0
 28 29  2  0  0  0  0
 29 26  1  0  0  0  0
 29 39  1  0  0  0  0
 30  1  1  0  0  0  0
 31  2  1  0  0  0  0
 32  3  1  0  0  0  0
 34 10  1  0  0  0  0
 35 23  1  0  0  0  0
 36 25  1  0  0  0  0
 37 27  1  0  0  0  0
 38 28  1  0  0  0  0
M  END
$$$$
scan_sander_basal_param/min_pdbs/min_pdb_C169_330.pdb
 OpenBabel10021702103D

 39 44  0  0  1  0  0  0  0  0999 V2000
    0.2380   -0.1340   -0.0760 C   0  0  0  0  0  0  0  0  0  0  0  0
    1.6240   -0.0700    0.1140 C   0  0  0  0  0  0  0  0  0  0  0  0
   -0.4780    1.0630   -0.2150 C   0  0  0  0  0  0  0  0  0  0  0  0
    2.2320    1.1920    0.1570 C   0  0  0  0  0  0  0  0  0  0  0  0
    0.1130    2.2710   -0.1730 N   0  0  0  0  0  0  0  0  0  0  0  0
    1.4500    2.3700    0.0120 C   0  0  0  0  0  0  0  0  0  0  0  0
    2.0770    3.7460    0.0460 C   0  0  0  0  0  0  0  0  0  0  0  0
    3.3990    3.8010   -0.2380 N   0  0  0  0  0  0  0  0  0  0  0  0
    1.3890    4.9510    0.3690 C   0  0  0  0  0  0  0  0  0  0  0  0
    4.0500    4.9800   -0.2500 C   0  0  0  0  0  0  0  0  0  0  0  0
    0.0990    5.0350    0.7650 N   0  0  0  0  0  0  0  0  0  0  0  0
    2.0630    6.1690    0.3500 C   0  0  0  0  0  0  0  0  0  0  0  0
    3.4340    6.2230    0.0010 C   0  0  0  0  0  0  0  0  0  0  0  0
   -0.1590    6.6150    1.0870 S   0  0  0  0  0  0  0  0  0  0  0  0
    1.3270    7.2150    0.7780 N   0  0  0  0  0  0  0  0  0  0  0  0
    4.2560    7.4520   -0.0680 C   0  0  2  0  0  0  0  0  0  0  0  0
    5.9820    7.3750    0.3360 B   0  0  0  0  0  0  0  0  0  0  0  0
    3.8320    8.8160   -0.3960 C   0  0  0  0  0  0  0  0  0  0  0  0
    6.0920    9.1290    0.2020 C   0  0  0  0  0  0  0  0  0  0  0  0
    2.6340    9.1420   -0.9250 N   0  0  0  0  0  0  0  0  0  0  0  0
    4.8470    9.7630   -0.2270 C   0  0  0  0  0  0  0  0  0  0  0  0
    7.3140    9.8510    0.4740 C   0  0  0  0  0  0  0  0  0  0  0  0
    2.4370   10.4520   -1.1830 C   0  0  0  0  0  0  0  0  0  0  0  0
    4.6550   11.0770   -0.4690 N   0  0  0  0  0  0  0  0  0  0  0  0
    7.6200   11.0940   -0.0300 C   0  0  0  0  0  0  0  0  0  0  0  0
    8.5930    9.2290    1.5110 S   0  0  0  0  0  0  0  0  0  0  0  0
    3.4360   11.4160   -0.9400 C   0  0  0  0  0  0  0  0  0  0  0  0
    8.8870   11.5680    0.4190 C   0  0  0  0  0  0  0  0  0  0  0  0
    9.5370   10.6930    1.2550 C   0  0  0  0  0  0  0  0  0  0  0  0
   -0.2750   -1.0910   -0.1150 H   0  0  0  0  0  0  0  0  0  0  0  0
    2.2140   -0.9770    0.2250 H   0  0  0  0  0  0  0  0  0  0  0  0
   -1.5580    1.0570   -0.3650 H   0  0  0  0  0  0  0  0  0  0  0  0
    3.3050    1.2630    0.3060 H   0  0  0  0  0  0  0  0  0  0  0  0
    5.1040    4.9190   -0.5160 H   0  0  0  0  0  0  0  0  0  0  0  0
    1.4650   10.7320   -1.5860 H   0  0  0  0  0  0  0  0  0  0  0  0
    7.0100   11.6650   -0.7160 H   0  0  0  0  0  0  0  0  0  0  0  0
    3.2640   12.4720   -1.1450 H   0  0  0  0  0  0  0  0  0  0  0  0
    9.2950   12.5280    0.1190 H   0  0  0  0  0  0  0  0  0  0  0  0
   10.5010   10.8030    1.7320 H   0  0  0  0  0  0  0  0  0  0  0  0
  1  2  2  0  0  0  0
  2  4  1  0  0  0  0
  2 31  1  0  0  0  0
  3  5  2  0  0  0  0
  3  1  1  0  0  0  0
  4 33  1  0  0  0  0
  5  6  1  0  0  0  0
  6  7  1  0  0  0  0
  6  4  2  0  0  0  0
  7  9  1  0  0  0  0
  8  7  2  0  0  0  0
  9 11  2  0  0  0  0
 10  8  1  0  0  0  0
 10 13  2  0  0  0  0
 11 14  1  0  0  0  0
 12  9  1  0  0  0  0
 12 15  2  0  0  0  0
 13 12  1  0  0  0  0
 15 14  1  0  0  0  0
 16 13  1  1  0  0  0
 16 17  1  0  0  0  0
 18 21  1  0  0  0  0
 18 16  1  0  0  0  0
 19 17  2  0  0  0  0
 19 22  1  0  0  0  0
 20 18  2  0  0  0  0
 21 19  1  0  0  0  0
 22 26  1  0  0  0  0
 23 27  2  0  0  0  0
 23 20  1  0  0  0  0
 24 21  2  0  0  0  0
 25 28  1  0  0  0  0
 25 22  2  0  0  0  0
 27 24  1  0  0  0  0
 28 29  2  0  0  0  0
 29 26  1  0  0  0  0
 29 39  1  0  0  0  0
 30  1  1  0  0  0  0
 32  3  1  0  0  0  0
 34 10  1  0  0  0  0
 35 23  1  0  0  0  0
 36 25  1  0  0  0  0
 37 27  1  0  0  0  0
 38 28  1  0  0  0  0
M  END
$$$$
scan_sander_basal_param/min_pdbs/min_pdb_C169_345.pdb
 OpenBabel10021702103D

 39 44  0  0  1  0  0  0  0  0999 V2000
    0.3400   -0.2010    0.0120 C   0  0  0  0  0  0  0  0  0  0  0  0
    1.6920   -0.0740    0.3550 C   0  0  0  0  0  0  0  0  0  0  0  0
   -0.3840    0.9570   -0.3080 C   0  0  0  0  0  0  0  0  0  0  0  0
    2.2600    1.2080    0.3630 C   0  0  0  0  0  0  0  0  0  0  0  0
    0.1690    2.1830   -0.2990 N   0  0  0  0  0  0  0  0  0  0  0  0
    1.4710    2.3430    0.0310 C   0  0  0  0  0  0  0  0  0  0  0  0
    2.0570    3.7380    0.0230 C   0  0  0  0  0  0  0  0  0  0  0  0
    3.4000    3.8140   -0.1080 N   0  0  0  0  0  0  0  0  0  0  0  0
    1.3120    4.9420    0.1630 C   0  0  0  0  0  0  0  0  0  0  0  0
    4.0190    5.0090   -0.1430 C   0  0  0  0  0  0  0  0  0  0  0  0
   -0.0180    5.0060    0.4020 N   0  0  0  0  0  0  0  0  0  0  0  0
    1.9550    6.1790    0.1190 C   0  0  0  0  0  0  0  0  0  0  0  0
    3.3600    6.2590   -0.0770 C   0  0  0  0  0  0  0  0  0  0  0  0
   -0.3600    6.5920    0.5630 S   0  0  0  0  0  0  0  0  0  0  0  0
    1.1350    7.2170    0.3740 N   0  0  0  0  0  0  0  0  0  0  0  0
    4.1860    7.4990   -0.1620 C   0  0  2  0  0  0  0  0  0  0  0  0
    5.9470    7.3760    0.0650 B   0  0  0  0  0  0  0  0  0  0  0  0
    3.7820    8.9010   -0.3640 C   0  0  0  0  0  0  0  0  0  0  0  0
    6.0850    9.1280    0.1030 C   0  0  0  0  0  0  0  0  0  0  0  0
    2.5770    9.3040   -0.8150 N   0  0  0  0  0  0  0  0  0  0  0  0
    4.8310    9.8130   -0.1880 C   0  0  0  0  0  0  0  0  0  0  0  0
    7.3360    9.8000    0.3780 C   0  0  0  0  0  0  0  0  0  0  0  0
    2.4020   10.6320   -0.9720 C   0  0  0  0  0  0  0  0  0  0  0  0
    4.6660   11.1450   -0.3310 N   0  0  0  0  0  0  0  0  0  0  0  0
    7.6430   11.0830   -0.0120 C   0  0  0  0  0  0  0  0  0  0  0  0
    8.6550    9.0530    1.2730 S   0  0  0  0  0  0  0  0  0  0  0  0
    3.4370   11.5510   -0.7120 C   0  0  0  0  0  0  0  0  0  0  0  0
    8.9430   11.4870    0.4120 C   0  0  0  0  0  0  0  0  0  0  0  0
    9.6160   10.5190    1.1170 C   0  0  0  0  0  0  0  0  0  0  0  0
   -0.1400   -1.1740   -0.0070 H   0  0  0  0  0  0  0  0  0  0  0  0
    2.2870   -0.9480    0.6090 H   0  0  0  0  0  0  0  0  0  0  0  0
   -1.4370    0.9020   -0.5820 H   0  0  0  0  0  0  0  0  0  0  0  0
    3.3050    1.3260    0.6300 H   0  0  0  0  0  0  0  0  0  0  0  0
    5.0950    4.9380   -0.2810 H   0  0  0  0  0  0  0  0  0  0  0  0
    1.4200   10.9630   -1.3070 H   0  0  0  0  0  0  0  0  0  0  0  0
    7.0120   11.7340   -0.6010 H   0  0  0  0  0  0  0  0  0  0  0  0
    3.2870   12.6220   -0.8350 H   0  0  0  0  0  0  0  0  0  0  0  0
    9.3560   12.4660    0.1900 H   0  0  0  0  0  0  0  0  0  0  0  0
   10.6070   10.5630    1.5480 H   0  0  0  0  0  0  0  0  0  0  0  0
  1  2  2  0  0  0  0
  2  4  1  0  0  0  0
  2 31  1  0  0  0  0
  3  5  2  0  0  0  0
  3  1  1  0  0  0  0
  4 33  1  0  0  0  0
  5  6  1  0  0  0  0
  6  4  2  0  0  0  0
  7  6  1  0  0  0  0
  7  9  1  0  0  0  0
  8  7  2  0  0  0  0
  9 11  2  0  0  0  0
 10  8  1  0  0  0  0
 10 13  2  0  0  0  0
 11 14  1  0  0  0  0
 12  9  1  0  0  0  0
 12 15  2  0  0  0  0
 13 12  1  0  0  0  0
 15 14  1  0  0  0  0
 16 13  1  1  0  0  0
 16 17  1  0  0  0  0
 17 19  2  0  0  0  0
 18 21  2  0  0  0  0
 18 16  1  0  0  0  0
 19 22  1  0  0  0  0
 20 18  1  0  0  0  0
 21 19  1  0  0  0  0
 22 26  1  0  0  0  0
 23 20  2  0  0  0  0
 23 27  1  0  0  0  0
 24 21  1  0  0  0  0
 25 22  2  0  0  0  0
 25 28  1  0  0  0  0
 27 24  2  0  0  0  0
 28 29  2  0  0  0  0
 29 26  1  0  0  0  0
 29 39  1  0  0  0  0
 30  1  1  0  0  0  0
 32  3  1  0  0  0  0
 34 10  1  0  0  0  0
 35 23  1  0  0  0  0
 36 25  1  0  0  0  0
 37 27  1  0  0  0  0
 38 28  1  0  0  0  0
M  END
$$$$
scan_sander_basal_param/min_pdbs/min_pdb_C169_360.pdb
 OpenBabel10021702103D

 39 44  0  0  1  0  0  0  0  0999 V2000
    0.4790   -0.2580   -0.0780 C   0  0  0  0  0  0  0  0  0  0  0  0
    1.6020   -0.0080    0.7210 C   0  0  0  0  0  0  0  0  0  0  0  0
   -0.0760    0.8020   -0.8090 C   0  0  0  0  0  0  0  0  0  0  0  0
    2.1180    1.2960    0.7530 C   0  0  0  0  0  0  0  0  0  0  0  0
    0.4280    2.0490   -0.7730 N   0  0  0  0  0  0  0  0  0  0  0  0
    1.5080    2.3290   -0.0090 C   0  0  0  0  0  0  0  0  0  0  0  0
    2.0480    3.7430    0.0030 C   0  0  0  0  0  0  0  0  0  0  0  0
    3.3390    3.8760    0.3720 N   0  0  0  0  0  0  0  0  0  0  0  0
    1.3060    4.9120   -0.3180 C   0  0  0  0  0  0  0  0  0  0  0  0
    3.9180    5.0900    0.4240 C   0  0  0  0  0  0  0  0  0  0  0  0
    0.0040    4.9210   -0.6840 N   0  0  0  0  0  0  0  0  0  0  0  0
    1.9070    6.1720   -0.2590 C   0  0  0  0  0  0  0  0  0  0  0  0
    3.2670    6.3160    0.1400 C   0  0  0  0  0  0  0  0  0  0  0  0
   -0.3640    6.4820   -0.9690 S   0  0  0  0  0  0  0  0  0  0  0  0
    1.0760    7.1650   -0.6280 N   0  0  0  0  0  0  0  0  0  0  0  0
    4.0670    7.5800    0.2640 C   0  0  1  0  0  0  0  0  0  0  0  0
    5.7780    7.4570    0.7590 B   0  0  0  0  0  0  0  0  0  0  0  0
    3.7120    8.9950    0.0240 C   0  0  0  0  0  0  0  0  0  0  0  0
    6.0430    9.1430    0.3570 C   0  0  0  0  0  0  0  0  0  0  0  0
    2.4610    9.4880   -0.0660 N   0  0  0  0  0  0  0  0  0  0  0  0
    4.8150    9.8600    0.0590 C   0  0  0  0  0  0  0  0  0  0  0  0
    7.3510    9.7520    0.3080 C   0  0  0  0  0  0  0  0  0  0  0  0
    2.3300   10.8260   -0.1710 C   0  0  0  0  0  0  0  0  0  0  0  0
    4.6990   11.2040    0.0010 N   0  0  0  0  0  0  0  0  0  0  0  0
    7.6440   10.8780   -0.4240 C   0  0  0  0  0  0  0  0  0  0  0  0
    8.7510    9.1450    1.1820 S   0  0  0  0  0  0  0  0  0  0  0  0
    3.4470   11.6830   -0.1400 C   0  0  0  0  0  0  0  0  0  0  0  0
    9.0050   11.2780   -0.2840 C   0  0  0  0  0  0  0  0  0  0  0  0
    9.7340   10.4610    0.5460 C   0  0  0  0  0  0  0  0  0  0  0  0
    0.0460   -1.2510   -0.1320 H   0  0  0  0  0  0  0  0  0  0  0  0
    2.0610   -0.8040    1.3020 H   0  0  0  0  0  0  0  0  0  0  0  0
   -0.9480    0.6500   -1.4430 H   0  0  0  0  0  0  0  0  0  0  0  0
    2.9860    1.5090    1.3700 H   0  0  0  0  0  0  0  0  0  0  0  0
    4.9590    5.0460    0.7300 H   0  0  0  0  0  0  0  0  0  0  0  0
    1.3180   11.2160   -0.2650 H   0  0  0  0  0  0  0  0  0  0  0  0
    6.9500   11.4080   -1.0640 H   0  0  0  0  0  0  0  0  0  0  0  0
    3.3350   12.7640   -0.2070 H   0  0  0  0  0  0  0  0  0  0  0  0
    9.4190   12.1440   -0.7900 H   0  0  0  0  0  0  0  0  0  0  0  0
   10.7770   10.5360    0.8230 H   0  0  0  0  0  0  0  0  0  0  0  0
  1  2  2  0  0  0  0
  2  4  1  0  0  0  0
  2 31  1  0  0  0  0
  3  5  2  0  0  0  0
  3  1  1  0  0  0  0
  4 33  1  0  0  0  0
  5  6  1  0  0  0  0
  6  7  1  0  0  0  0
  6  4  2  0  0  0  0
  7  8  2  0  0  0  0
  8 10  1  0  0  0  0
  9 12  1  0  0  0  0
  9  7  1  0  0  0  0
 10 34  1  0  0  0  0
 11  9  2  0  0  0  0
 12 13  1  0  0  0  0
 13 10  2  0  0  0  0
 14 11  1  0  0  0  0
 14 15  1  0  0  0  0
 15 12  2  0  0  0  0
 16 13  1  6  0  0  0
 16 17  1  0  0  0  0
 18 21  1  0  0  0  0
 18 16  1  0  0  0  0
 19 17  2  0  0  0  0
 20 18  2  0  0  0  0
 21 19  1  0  0  0  0
 22 19  1  0  0  0  0
 22 26  1  0  0  0  0
 23 27  2  0  0  0  0
 23 20  1  0  0  0  0
 24 21  2  0  0  0  0
 25 28  1  0  0  0  0
 25 22  2  0  0  0  0
 27 24  1  0  0  0  0
 28 29  2  0  0  0  0
 29 39  1  0  0  0  0
 29 26  1  0  0  0  0
 30  1  1  0  0  0  0
 32  3  1  0  0  0  0
 35 23  1  0  0  0  0
 36 25  1  0  0  0  0
 37 27  1  0  0  0  0
 38 28  1  0  0  0  0
M  END
$$$$
