scan_sander_basal_param/min_pdbs/min_pdb_C271_000.pdb
 OpenBabel10021702303D

 37 42  0  0  1  0  0  0  0  0999 V2000
   -0.5110    0.3830    0.0480 C   0  0  0  0  0  0  0  0  0  0  0  0
    0.5740    0.4500   -0.8400 C   0  0  0  0  0  0  0  0  0  0  0  0
   -0.8030    1.3720    0.9140 N   0  0  0  0  0  0  0  0  0  0  0  0
    1.3940    1.5890   -0.8260 C   0  0  0  0  0  0  0  0  0  0  0  0
   -0.0110    2.4640    0.9290 C   0  0  0  0  0  0  0  0  0  0  0  0
    1.1140    2.6380    0.0820 C   0  0  0  0  0  0  0  0  0  0  0  0
    1.9530    3.8770    0.1130 C   0  0  0  0  0  0  0  0  0  0  0  0
    2.3770    4.4930   -1.0840 C   0  0  0  0  0  0  0  0  0  0  0  0
    2.3770    4.5080    1.3040 C   0  0  0  0  0  0  0  0  0  0  0  0
    3.1310    5.6090   -1.1260 N   0  0  0  0  0  0  0  0  0  0  0  0
    2.0870    4.0520    2.5390 N   0  0  0  0  0  0  0  0  0  0  0  0
    3.1580    5.6580    1.2660 C   0  0  0  0  0  0  0  0  0  0  0  0
    3.5370    6.2130    0.0140 C   0  0  0  0  0  0  0  0  0  0  0  0
    2.8020    5.1050    3.5630 S   0  0  0  0  0  0  0  0  0  0  0  0
    3.4860    6.1330    2.4910 N   0  0  0  0  0  0  0  0  0  0  0  0
    4.3680    7.4390   -0.1100 C   0  0  1  0  0  0  0  0  0  0  0  0
    5.0380    8.3940    1.2330 B   0  0  0  0  0  0  0  0  0  0  0  0
    4.7530    8.0290   -1.3040 C   0  0  0  0  0  0  0  0  0  0  0  0
    5.8110    9.5460    0.1360 C   0  0  0  0  0  0  0  0  0  0  0  0
    4.4080    7.5650   -2.9550 S   0  0  0  0  0  0  0  0  0  0  0  0
    5.5370    9.1740   -1.1570 C   0  0  0  0  0  0  0  0  0  0  0  0
    6.5960   10.6810    0.5470 C   0  0  0  0  0  0  0  0  0  0  0  0
    5.3640    8.9760   -3.4770 C   0  0  0  0  0  0  0  0  0  0  0  0
    5.8880    9.7180   -2.4290 C   0  0  0  0  0  0  0  0  0  0  0  0
    6.7210   10.8310    1.8540 C   0  0  0  0  0  0  0  0  0  0  0  0
    7.4000   11.8720   -0.4530 S   0  0  0  0  0  0  0  0  0  0  0  0
    7.4870   11.9390    2.1390 C   0  0  0  0  0  0  0  0  0  0  0  0
    7.9380   12.6190    1.0310 C   0  0  0  0  0  0  0  0  0  0  0  0
   -1.1690   -0.4850    0.0640 H   0  0  0  0  0  0  0  0  0  0  0  0
    0.7740   -0.3690   -1.5250 H   0  0  0  0  0  0  0  0  0  0  0  0
    2.2430    1.6590   -1.5010 H   0  0  0  0  0  0  0  0  0  0  0  0
   -0.2940    3.2420    1.6360 H   0  0  0  0  0  0  0  0  0  0  0  0
    2.0910    4.0790   -2.0500 H   0  0  0  0  0  0  0  0  0  0  0  0
    5.4730    9.1610   -4.5380 H   0  0  0  0  0  0  0  0  0  0  0  0
    6.4890   10.6030   -2.5830 H   0  0  0  0  0  0  0  0  0  0  0  0
    7.6790   12.1940    3.1750 H   0  0  0  0  0  0  0  0  0  0  0  0
    8.5500   13.5090    0.9930 H   0  0  0  0  0  0  0  0  0  0  0  0
  1 29  1  0  0  0  0
  1  3  2  0  0  0  0
  2  4  2  0  0  0  0
  2  1  1  0  0  0  0
  3  5  1  0  0  0  0
  4  6  1  0  0  0  0
  5 32  1  0  0  0  0
  6  7  1  0  0  0  0
  6  5  2  0  0  0  0
  7  9  1  0  0  0  0
  8  7  2  0  0  0  0
  9 11  2  0  0  0  0
 10  8  1  0  0  0  0
 10 13  2  0  0  0  0
 11 14  1  0  0  0  0
 12  9  1  0  0  0  0
 12 15  2  0  0  0  0
 13 12  1  0  0  0  0
 15 14  1  0  0  0  0
 16 13  1  6  0  0  0
 16 17  1  0  0  0  0
 18 21  2  0  0  0  0
 18 16  1  0  0  0  0
 19 22  1  0  0  0  0
 19 17  2  0  0  0  0
 20 18  1  0  0  0  0
 21 19  1  0  0  0  0
 22 25  2  0  0  0  0
 23 20  1  0  0  0  0
 23 24  2  0  0  0  0
 24 21  1  0  0  0  0
 25 27  1  0  0  0  0
 26 22  1  0  0  0  0
 26 28  1  0  0  0  0
 27 36  1  0  0  0  0
 28 27  2  0  0  0  0
 30  2  1  0  0  0  0
 31  4  1  0  0  0  0
 33  8  1  0  0  0  0
 34 23  1  0  0  0  0
 35 24  1  0  0  0  0
 37 28  1  0  0  0  0
M  END
$$$$
scan_sander_basal_param/min_pdbs/min_pdb_C271_015.pdb
 OpenBabel10021702303D

 37 42  0  0  1  0  0  0  0  0999 V2000
   -0.5400    0.4020    0.0400 C   0  0  0  0  0  0  0  0  0  0  0  0
    0.5520    0.4590   -0.8410 C   0  0  0  0  0  0  0  0  0  0  0  0
   -0.8300    1.3940    0.9020 N   0  0  0  0  0  0  0  0  0  0  0  0
    1.3800    1.5920   -0.8240 C   0  0  0  0  0  0  0  0  0  0  0  0
   -0.0310    2.4810    0.9200 C   0  0  0  0  0  0  0  0  0  0  0  0
    1.1010    2.6440    0.0800 C   0  0  0  0  0  0  0  0  0  0  0  0
    1.9490    3.8780    0.1140 C   0  0  0  0  0  0  0  0  0  0  0  0
    2.3850    4.4890   -1.0820 C   0  0  0  0  0  0  0  0  0  0  0  0
    2.3700    4.5090    1.3060 C   0  0  0  0  0  0  0  0  0  0  0  0
    3.1460    5.5990   -1.1210 N   0  0  0  0  0  0  0  0  0  0  0  0
    2.0680    4.0580    2.5400 N   0  0  0  0  0  0  0  0  0  0  0  0
    3.1580    5.6540    1.2710 C   0  0  0  0  0  0  0  0  0  0  0  0
    3.5490    6.2030    0.0200 C   0  0  0  0  0  0  0  0  0  0  0  0
    2.7840    5.1070    3.5670 S   0  0  0  0  0  0  0  0  0  0  0  0
    3.4810    6.1300    2.4960 N   0  0  0  0  0  0  0  0  0  0  0  0
    4.3880    7.4240   -0.1010 C   0  0  1  0  0  0  0  0  0  0  0  0
    5.0560    8.3790    1.2440 B   0  0  0  0  0  0  0  0  0  0  0  0
    4.7840    8.0080   -1.2950 C   0  0  0  0  0  0  0  0  0  0  0  0
    5.8330    9.5260    0.1470 C   0  0  0  0  0  0  0  0  0  0  0  0
    4.4610    7.5360   -2.9480 S   0  0  0  0  0  0  0  0  0  0  0  0
    5.5690    9.1500   -1.1450 C   0  0  0  0  0  0  0  0  0  0  0  0
    6.5740   10.6910    0.5490 C   0  0  0  0  0  0  0  0  0  0  0  0
    5.4460    8.9310   -3.4650 C   0  0  0  0  0  0  0  0  0  0  0  0
    5.9580    9.6760   -2.4130 C   0  0  0  0  0  0  0  0  0  0  0  0
    6.9250   10.7240    1.8220 C   0  0  0  0  0  0  0  0  0  0  0  0
    7.0080   12.0830   -0.4200 S   0  0  0  0  0  0  0  0  0  0  0  0
    7.6010   11.8900    2.1000 C   0  0  0  0  0  0  0  0  0  0  0  0
    7.7440   12.7360    1.0240 C   0  0  0  0  0  0  0  0  0  0  0  0
   -1.2040   -0.4620    0.0540 H   0  0  0  0  0  0  0  0  0  0  0  0
    0.7510   -0.3630   -1.5220 H   0  0  0  0  0  0  0  0  0  0  0  0
    2.2340    1.6540   -1.4940 H   0  0  0  0  0  0  0  0  0  0  0  0
   -0.3120    3.2620    1.6240 H   0  0  0  0  0  0  0  0  0  0  0  0
    2.1020    4.0740   -2.0490 H   0  0  0  0  0  0  0  0  0  0  0  0
    5.5850    9.0990   -4.5250 H   0  0  0  0  0  0  0  0  0  0  0  0
    6.5900   10.5410   -2.5580 H   0  0  0  0  0  0  0  0  0  0  0  0
    7.9620   12.0620    3.1070 H   0  0  0  0  0  0  0  0  0  0  0  0
    8.2300   13.7010    0.9890 H   0  0  0  0  0  0  0  0  0  0  0  0
  1 29  1  0  0  0  0
  1  3  2  0  0  0  0
  2  4  2  0  0  0  0
  2  1  1  0  0  0  0
  3  5  1  0  0  0  0
  4  6  1  0  0  0  0
  5 32  1  0  0  0  0
  6  7  1  0  0  0  0
  6  5  2  0  0  0  0
  7  9  1  0  0  0  0
  8  7  2  0  0  0  0
  9 11  2  0  0  0  0
 10  8  1  0  0  0  0
 10 13  2  0  0  0  0
 11 14  1  0  0  0  0
 12  9  1  0  0  0  0
 12 15  2  0  0  0  0
 13 12  1  0  0  0  0
 15 14  1  0  0  0  0
 16 13  1  6  0  0  0
 16 17  1  0  0  0  0
 18 21  2  0  0  0  0
 18 16  1  0  0  0  0
 19 22  1  0  0  0  0
 19 17  2  0  0  0  0
 20 18  1  0  0  0  0
 21 19  1  0  0  0  0
 22 25  2  0  0  0  0
 23 20  1  0  0  0  0
 23 24  2  0  0  0  0
 24 21  1  0  0  0  0
 25 27  1  0  0  0  0
 26 22  1  0  0  0  0
 26 28  1  0  0  0  0
 27 36  1  0  0  0  0
 28 27  2  0  0  0  0
 30  2  1  0  0  0  0
 31  4  1  0  0  0  0
 33  8  1  0  0  0  0
 34 23  1  0  0  0  0
 35 24  1  0  0  0  0
 37 28  1  0  0  0  0
M  END
$$$$
scan_sander_basal_param/min_pdbs/min_pdb_C271_030.pdb
 OpenBabel10021702303D

 37 42  0  0  1  0  0  0  0  0999 V2000
   -0.5530    0.4060    0.0210 C   0  0  0  0  0  0  0  0  0  0  0  0
    0.5570    0.4540   -0.8380 C   0  0  0  0  0  0  0  0  0  0  0  0
   -0.8600    1.4060    0.8680 N   0  0  0  0  0  0  0  0  0  0  0  0
    1.3860    1.5860   -0.8130 C   0  0  0  0  0  0  0  0  0  0  0  0
   -0.0590    2.4920    0.8930 C   0  0  0  0  0  0  0  0  0  0  0  0
    1.0900    2.6470    0.0760 C   0  0  0  0  0  0  0  0  0  0  0  0
    1.9380    3.8790    0.1160 C   0  0  0  0  0  0  0  0  0  0  0  0
    2.4010    4.4790   -1.0750 C   0  0  0  0  0  0  0  0  0  0  0  0
    2.3350    4.5200    1.3120 C   0  0  0  0  0  0  0  0  0  0  0  0
    3.1640    5.5880   -1.1090 N   0  0  0  0  0  0  0  0  0  0  0  0
    2.0080    4.0810    2.5430 N   0  0  0  0  0  0  0  0  0  0  0  0
    3.1260    5.6640    1.2830 C   0  0  0  0  0  0  0  0  0  0  0  0
    3.5430    6.2020    0.0360 C   0  0  0  0  0  0  0  0  0  0  0  0
    2.7040    5.1380    3.5750 S   0  0  0  0  0  0  0  0  0  0  0  0
    3.4240    6.1510    2.5100 N   0  0  0  0  0  0  0  0  0  0  0  0
    4.3870    7.4190   -0.0790 C   0  0  1  0  0  0  0  0  0  0  0  0
    5.0300    8.3880    1.2720 B   0  0  0  0  0  0  0  0  0  0  0  0
    4.8060    7.9900   -1.2720 C   0  0  0  0  0  0  0  0  0  0  0  0
    5.8280    9.5180    0.1740 C   0  0  0  0  0  0  0  0  0  0  0  0
    4.5220    7.5090   -2.9290 S   0  0  0  0  0  0  0  0  0  0  0  0
    5.5880    9.1310   -1.1160 C   0  0  0  0  0  0  0  0  0  0  0  0
    6.5480   10.6990    0.5540 C   0  0  0  0  0  0  0  0  0  0  0  0
    5.5230    8.9000   -3.4320 C   0  0  0  0  0  0  0  0  0  0  0  0
    6.0110    9.6510   -2.3730 C   0  0  0  0  0  0  0  0  0  0  0  0
    7.1380   10.6530    1.7340 C   0  0  0  0  0  0  0  0  0  0  0  0
    6.6470   12.2050   -0.3290 S   0  0  0  0  0  0  0  0  0  0  0  0
    7.7560   11.8560    1.9950 C   0  0  0  0  0  0  0  0  0  0  0  0
    7.6040   12.8010    1.0060 C   0  0  0  0  0  0  0  0  0  0  0  0
   -1.2180   -0.4570    0.0280 H   0  0  0  0  0  0  0  0  0  0  0  0
    0.7690   -0.3740   -1.5070 H   0  0  0  0  0  0  0  0  0  0  0  0
    2.2540    1.6410   -1.4660 H   0  0  0  0  0  0  0  0  0  0  0  0
   -0.3540    3.2800    1.5840 H   0  0  0  0  0  0  0  0  0  0  0  0
    2.1370    4.0560   -2.0450 H   0  0  0  0  0  0  0  0  0  0  0  0
    5.6890    9.0590   -4.4900 H   0  0  0  0  0  0  0  0  0  0  0  0
    6.6530   10.5130   -2.4970 H   0  0  0  0  0  0  0  0  0  0  0  0
    8.2970   11.9780    2.9260 H   0  0  0  0  0  0  0  0  0  0  0  0
    7.9900   13.8110    0.9790 H   0  0  0  0  0  0  0  0  0  0  0  0
  1 29  1  0  0  0  0
  1  3  2  0  0  0  0
  2  4  2  0  0  0  0
  2  1  1  0  0  0  0
  3  5  1  0  0  0  0
  4  6  1  0  0  0  0
  5 32  1  0  0  0  0
  6  7  1  0  0  0  0
  6  5  2  0  0  0  0
  7  9  1  0  0  0  0
  8  7  2  0  0  0  0
  9 11  2  0  0  0  0
 10  8  1  0  0  0  0
 10 13  2  0  0  0  0
 11 14  1  0  0  0  0
 12  9  1  0  0  0  0
 12 15  2  0  0  0  0
 13 12  1  0  0  0  0
 15 14  1  0  0  0  0
 16 13  1  1  0  0  0
 16 17  1  0  0  0  0
 18 21  2  0  0  0  0
 18 16  1  0  0  0  0
 19 22  1  0  0  0  0
 19 17  2  0  0  0  0
 20 18  1  0  0  0  0
 21 19  1  0  0  0  0
 22 25  2  0  0  0  0
 23 20  1  0  0  0  0
 23 24  2  0  0  0  0
 24 21  1  0  0  0  0
 25 27  1  0  0  0  0
 26 22  1  0  0  0  0
 26 28  1  0  0  0  0
 27 36  1  0  0  0  0
 28 27  2  0  0  0  0
 30  2  1  0  0  0  0
 31  4  1  0  0  0  0
 33  8  1  0  0  0  0
 34 23  1  0  0  0  0
 35 24  1  0  0  0  0
 37 28  1  0  0  0  0
M  END
$$$$
scan_sander_basal_param/min_pdbs/min_pdb_C271_045.pdb
 OpenBabel10021702303D

 37 42  0  0  1  0  0  0  0  0999 V2000
   -0.5530    0.3990   -0.0040 C   0  0  0  0  0  0  0  0  0  0  0  0
    0.5860    0.4350   -0.8240 C   0  0  0  0  0  0  0  0  0  0  0  0
   -0.8910    1.4120    0.8150 N   0  0  0  0  0  0  0  0  0  0  0  0
    1.4120    1.5700   -0.7900 C   0  0  0  0  0  0  0  0  0  0  0  0
   -0.0950    2.5010    0.8490 C   0  0  0  0  0  0  0  0  0  0  0  0
    1.0820    2.6450    0.0700 C   0  0  0  0  0  0  0  0  0  0  0  0
    1.9260    3.8800    0.1190 C   0  0  0  0  0  0  0  0  0  0  0  0
    2.4280    4.4610   -1.0660 C   0  0  0  0  0  0  0  0  0  0  0  0
    2.2790    4.5430    1.3160 C   0  0  0  0  0  0  0  0  0  0  0  0
    3.1890    5.5720   -1.0920 N   0  0  0  0  0  0  0  0  0  0  0  0
    1.9100    4.1230    2.5430 N   0  0  0  0  0  0  0  0  0  0  0  0
    3.0680    5.6880    1.2950 C   0  0  0  0  0  0  0  0  0  0  0  0
    3.5270    6.2050    0.0550 C   0  0  0  0  0  0  0  0  0  0  0  0
    2.5680    5.2000    3.5800 S   0  0  0  0  0  0  0  0  0  0  0  0
    3.3210    6.1970    2.5240 N   0  0  0  0  0  0  0  0  0  0  0  0
    4.3710    7.4220   -0.0520 C   0  0  1  0  0  0  0  0  0  0  0  0
    4.9670    8.4190    1.3050 B   0  0  0  0  0  0  0  0  0  0  0  0
    4.8300    7.9720   -1.2410 C   0  0  0  0  0  0  0  0  0  0  0  0
    5.7980    9.5240    0.2100 C   0  0  0  0  0  0  0  0  0  0  0  0
    4.6010    7.4710   -2.9010 S   0  0  0  0  0  0  0  0  0  0  0  0
    5.6020    9.1160   -1.0770 C   0  0  0  0  0  0  0  0  0  0  0  0
    6.5130   10.7110    0.5660 C   0  0  0  0  0  0  0  0  0  0  0  0
    5.6080    8.8660   -3.3890 C   0  0  0  0  0  0  0  0  0  0  0  0
    6.0590    9.6300   -2.3230 C   0  0  0  0  0  0  0  0  0  0  0  0
    7.3260   10.6120    1.5990 C   0  0  0  0  0  0  0  0  0  0  0  0
    6.3380   12.2820   -0.1810 S   0  0  0  0  0  0  0  0  0  0  0  0
    7.9100   11.8350    1.8450 C   0  0  0  0  0  0  0  0  0  0  0  0
    7.5060   12.8410    0.9940 C   0  0  0  0  0  0  0  0  0  0  0  0
   -1.2160   -0.4660   -0.0050 H   0  0  0  0  0  0  0  0  0  0  0  0
    0.8230   -0.4040   -1.4720 H   0  0  0  0  0  0  0  0  0  0  0  0
    2.3010    1.6160   -1.4130 H   0  0  0  0  0  0  0  0  0  0  0  0
   -0.4150    3.2990    1.5160 H   0  0  0  0  0  0  0  0  0  0  0  0
    2.1990    4.0210   -2.0370 H   0  0  0  0  0  0  0  0  0  0  0  0
    5.8030    9.0180   -4.4430 H   0  0  0  0  0  0  0  0  0  0  0  0
    6.6940   10.5030   -2.4260 H   0  0  0  0  0  0  0  0  0  0  0  0
    8.6180   11.9250    2.6600 H   0  0  0  0  0  0  0  0  0  0  0  0
    7.8180   13.8760    0.9880 H   0  0  0  0  0  0  0  0  0  0  0  0
  1  3  2  0  0  0  0
  2  4  2  0  0  0  0
  2  1  1  0  0  0  0
  3  5  1  0  0  0  0
  4  6  1  0  0  0  0
  5 32  1  0  0  0  0
  6  7  1  0  0  0  0
  6  5  2  0  0  0  0
  7  9  1  0  0  0  0
  8  7  2  0  0  0  0
  9 11  2  0  0  0  0
 10  8  1  0  0  0  0
 10 13  2  0  0  0  0
 11 14  1  0  0  0  0
 12  9  1  0  0  0  0
 12 15  2  0  0  0  0
 13 12  1  0  0  0  0
 15 14  1  0  0  0  0
 16 13  1  1  0  0  0
 16 17  1  0  0  0  0
 18 21  2  0  0  0  0
 18 16  1  0  0  0  0
 19 22  1  0  0  0  0
 19 17  2  0  0  0  0
 20 18  1  0  0  0  0
 21 19  1  0  0  0  0
 22 25  2  0  0  0  0
 23 20  1  0  0  0  0
 23 24  2  0  0  0  0
 24 21  1  0  0  0  0
 25 27  1  0  0  0  0
 26 22  1  0  0  0  0
 26 28  1  0  0  0  0
 27 36  1  0  0  0  0
 28 27  2  0  0  0  0
 29  1  1  0  0  0  0
 30  2  1  0  0  0  0
 31  4  1  0  0  0  0
 33  8  1  0  0  0  0
 34 23  1  0  0  0  0
 35 24  1  0  0  0  0
 37 28  1  0  0  0  0
M  END
$$$$
scan_sander_basal_param/min_pdbs/min_pdb_C271_060.pdb
 OpenBabel10021702303D

 37 42  0  0  1  0  0  0  0  0999 V2000
   -0.5430    0.3850   -0.0230 C   0  0  0  0  0  0  0  0  0  0  0  0
    0.6250    0.4130   -0.8030 C   0  0  0  0  0  0  0  0  0  0  0  0
   -0.9160    1.4110    0.7650 N   0  0  0  0  0  0  0  0  0  0  0  0
    1.4420    1.5530   -0.7600 C   0  0  0  0  0  0  0  0  0  0  0  0
   -0.1260    2.5050    0.8060 C   0  0  0  0  0  0  0  0  0  0  0  0
    1.0760    2.6420    0.0670 C   0  0  0  0  0  0  0  0  0  0  0  0
    1.9110    3.8830    0.1230 C   0  0  0  0  0  0  0  0  0  0  0  0
    2.4520    4.4450   -1.0540 C   0  0  0  0  0  0  0  0  0  0  0  0
    2.2180    4.5690    1.3200 C   0  0  0  0  0  0  0  0  0  0  0  0
    3.2090    5.5580   -1.0730 N   0  0  0  0  0  0  0  0  0  0  0  0
    1.8070    4.1700    2.5400 N   0  0  0  0  0  0  0  0  0  0  0  0
    3.0020    5.7180    1.3050 C   0  0  0  0  0  0  0  0  0  0  0  0
    3.5030    6.2140    0.0720 C   0  0  0  0  0  0  0  0  0  0  0  0
    2.4230    5.2700    3.5800 S   0  0  0  0  0  0  0  0  0  0  0  0
    3.2090    6.2510    2.5320 N   0  0  0  0  0  0  0  0  0  0  0  0
    4.3460    7.4320   -0.0270 C   0  0  1  0  0  0  0  0  0  0  0  0
    4.8900    8.4580    1.3310 B   0  0  0  0  0  0  0  0  0  0  0  0
    4.8440    7.9600   -1.2100 C   0  0  0  0  0  0  0  0  0  0  0  0
    5.7540    9.5420    0.2430 C   0  0  0  0  0  0  0  0  0  0  0  0
    4.6740    7.4340   -2.8700 S   0  0  0  0  0  0  0  0  0  0  0  0
    5.6060    9.1080   -1.0400 C   0  0  0  0  0  0  0  0  0  0  0  0
    6.4730   10.7280    0.5820 C   0  0  0  0  0  0  0  0  0  0  0  0
    5.6860    8.8310   -3.3450 C   0  0  0  0  0  0  0  0  0  0  0  0
    6.0970    9.6140   -2.2750 C   0  0  0  0  0  0  0  0  0  0  0  0
    7.4840   10.5830    1.4160 C   0  0  0  0  0  0  0  0  0  0  0  0
    6.0890   12.3400    0.0330 S   0  0  0  0  0  0  0  0  0  0  0  0
    8.0540   11.8130    1.6590 C   0  0  0  0  0  0  0  0  0  0  0  0
    7.4460   12.8630    1.0060 C   0  0  0  0  0  0  0  0  0  0  0  0
   -1.2010   -0.4840   -0.0310 H   0  0  0  0  0  0  0  0  0  0  0  0
    0.8890   -0.4370   -1.4260 H   0  0  0  0  0  0  0  0  0  0  0  0
    2.3530    1.5930   -1.3520 H   0  0  0  0  0  0  0  0  0  0  0  0
   -0.4750    3.3130    1.4470 H   0  0  0  0  0  0  0  0  0  0  0  0
    2.2600    3.9850   -2.0240 H   0  0  0  0  0  0  0  0  0  0  0  0
    5.9110    8.9730   -4.3940 H   0  0  0  0  0  0  0  0  0  0  0  0
    6.7230   10.4950   -2.3630 H   0  0  0  0  0  0  0  0  0  0  0  0
    8.9080   11.8740    2.3220 H   0  0  0  0  0  0  0  0  0  0  0  0
    7.7070   13.9120    1.0380 H   0  0  0  0  0  0  0  0  0  0  0  0
  1  3  2  0  0  0  0
  2  4  2  0  0  0  0
  2  1  1  0  0  0  0
  3  5  1  0  0  0  0
  4  6  1  0  0  0  0
  5 32  1  0  0  0  0
  6  7  1  0  0  0  0
  6  5  2  0  0  0  0
  7  9  1  0  0  0  0
  8  7  2  0  0  0  0
  9 11  2  0  0  0  0
 10  8  1  0  0  0  0
 10 13  2  0  0  0  0
 11 14  1  0  0  0  0
 12  9  1  0  0  0  0
 12 15  2  0  0  0  0
 13 12  1  0  0  0  0
 15 14  1  0  0  0  0
 16 13  1  1  0  0  0
 16 17  1  0  0  0  0
 18 21  2  0  0  0  0
 18 16  1  0  0  0  0
 19 22  1  0  0  0  0
 19 17  2  0  0  0  0
 20 18  1  0  0  0  0
 21 19  1  0  0  0  0
 22 25  2  0  0  0  0
 23 20  1  0  0  0  0
 23 24  2  0  0  0  0
 24 21  1  0  0  0  0
 25 27  1  0  0  0  0
 26 22  1  0  0  0  0
 26 28  1  0  0  0  0
 27 36  1  0  0  0  0
 28 37  1  0  0  0  0
 28 27  2  0  0  0  0
 29  1  1  0  0  0  0
 30  2  1  0  0  0  0
 31  4  1  0  0  0  0
 33  8  1  0  0  0  0
 34 23  1  0  0  0  0
 35 24  1  0  0  0  0
M  END
$$$$
scan_sander_basal_param/min_pdbs/min_pdb_C271_075.pdb
 OpenBabel10021702303D

 37 42  0  0  1  0  0  0  0  0999 V2000
   -0.5440    0.3800   -0.0340 C   0  0  0  0  0  0  0  0  0  0  0  0
    0.6480    0.3960   -0.7780 C   0  0  0  0  0  0  0  0  0  0  0  0
   -0.9410    1.4200    0.7230 N   0  0  0  0  0  0  0  0  0  0  0  0
    1.4620    1.5390   -0.7300 C   0  0  0  0  0  0  0  0  0  0  0  0
   -0.1550    2.5150    0.7700 C   0  0  0  0  0  0  0  0  0  0  0  0
    1.0700    2.6410    0.0670 C   0  0  0  0  0  0  0  0  0  0  0  0
    1.9010    3.8840    0.1270 C   0  0  0  0  0  0  0  0  0  0  0  0
    2.4780    4.4260   -1.0430 C   0  0  0  0  0  0  0  0  0  0  0  0
    2.1710    4.5910    1.3200 C   0  0  0  0  0  0  0  0  0  0  0  0
    3.2340    5.5410   -1.0580 N   0  0  0  0  0  0  0  0  0  0  0  0
    1.7230    4.2130    2.5340 N   0  0  0  0  0  0  0  0  0  0  0  0
    2.9530    5.7410    1.3110 C   0  0  0  0  0  0  0  0  0  0  0  0
    3.4910    6.2170    0.0850 C   0  0  0  0  0  0  0  0  0  0  0  0
    2.3040    5.3320    3.5730 S   0  0  0  0  0  0  0  0  0  0  0  0
    3.1210    6.2960    2.5340 N   0  0  0  0  0  0  0  0  0  0  0  0
    4.3340    7.4350   -0.0100 C   0  0  1  0  0  0  0  0  0  0  0  0
    4.8350    8.4860    1.3470 B   0  0  0  0  0  0  0  0  0  0  0  0
    4.8670    7.9430   -1.1860 C   0  0  0  0  0  0  0  0  0  0  0  0
    5.7250    9.5540    0.2640 C   0  0  0  0  0  0  0  0  0  0  0  0
    4.7500    7.3910   -2.8420 S   0  0  0  0  0  0  0  0  0  0  0  0
    5.6200    9.0960   -1.0130 C   0  0  0  0  0  0  0  0  0  0  0  0
    6.4400   10.7430    0.5970 C   0  0  0  0  0  0  0  0  0  0  0  0
    5.7670    8.7860   -3.3090 C   0  0  0  0  0  0  0  0  0  0  0  0
    6.1430    9.5880   -2.2400 C   0  0  0  0  0  0  0  0  0  0  0  0
    7.6020   10.5850    1.1980 C   0  0  0  0  0  0  0  0  0  0  0  0
    5.8810   12.3700    0.3070 S   0  0  0  0  0  0  0  0  0  0  0  0
    8.1500   11.8210    1.4610 C   0  0  0  0  0  0  0  0  0  0  0  0
    7.3760   12.8860    1.0550 C   0  0  0  0  0  0  0  0  0  0  0  0
   -1.2000   -0.4890   -0.0480 H   0  0  0  0  0  0  0  0  0  0  0  0
    0.9320   -0.4630   -1.3770 H   0  0  0  0  0  0  0  0  0  0  0  0
    2.3910    1.5700   -1.2940 H   0  0  0  0  0  0  0  0  0  0  0  0
   -0.5240    3.3340    1.3850 H   0  0  0  0  0  0  0  0  0  0  0  0
    2.3180    3.9500   -2.0100 H   0  0  0  0  0  0  0  0  0  0  0  0
    6.0210    8.9150   -4.3530 H   0  0  0  0  0  0  0  0  0  0  0  0
    6.7640   10.4740   -2.3200 H   0  0  0  0  0  0  0  0  0  0  0  0
    9.1150   11.8740    1.9500 H   0  0  0  0  0  0  0  0  0  0  0  0
    7.5890   13.9420    1.1500 H   0  0  0  0  0  0  0  0  0  0  0  0
  1  3  2  0  0  0  0
  2  4  2  0  0  0  0
  2  1  1  0  0  0  0
  3  5  1  0  0  0  0
  4  6  1  0  0  0  0
  5 32  1  0  0  0  0
  6  7  1  0  0  0  0
  6  5  2  0  0  0  0
  7  9  1  0  0  0  0
  8  7  2  0  0  0  0
  9 11  2  0  0  0  0
 10  8  1  0  0  0  0
 10 13  2  0  0  0  0
 11 14  1  0  0  0  0
 12  9  1  0  0  0  0
 12 15  2  0  0  0  0
 13 12  1  0  0  0  0
 15 14  1  0  0  0  0
 16 13  1  1  0  0  0
 16 17  1  0  0  0  0
 18 21  2  0  0  0  0
 18 16  1  0  0  0  0
 19 22  1  0  0  0  0
 19 17  2  0  0  0  0
 20 18  1  0  0  0  0
 21 19  1  0  0  0  0
 22 25  2  0  0  0  0
 23 20  1  0  0  0  0
 23 24  2  0  0  0  0
 24 21  1  0  0  0  0
 25 27  1  0  0  0  0
 26 22  1  0  0  0  0
 26 28  1  0  0  0  0
 27 36  1  0  0  0  0
 28 37  1  0  0  0  0
 28 27  2  0  0  0  0
 29  1  1  0  0  0  0
 30  2  1  0  0  0  0
 31  4  1  0  0  0  0
 33  8  1  0  0  0  0
 34 23  1  0  0  0  0
 35 24  1  0  0  0  0
M  END
$$$$
scan_sander_basal_param/min_pdbs/min_pdb_C271_090.pdb
 OpenBabel10021702303D

 37 42  0  0  1  0  0  0  0  0999 V2000
   -0.5500    0.3820   -0.0410 C   0  0  0  0  0  0  0  0  0  0  0  0
    0.6570    0.3870   -0.7590 C   0  0  0  0  0  0  0  0  0  0  0  0
   -0.9620    1.4310    0.6950 N   0  0  0  0  0  0  0  0  0  0  0  0
    1.4720    1.5300   -0.7080 C   0  0  0  0  0  0  0  0  0  0  0  0
   -0.1760    2.5260    0.7450 C   0  0  0  0  0  0  0  0  0  0  0  0
    1.0640    2.6420    0.0660 C   0  0  0  0  0  0  0  0  0  0  0  0
    1.8960    3.8850    0.1280 C   0  0  0  0  0  0  0  0  0  0  0  0
    2.4980    4.4120   -1.0350 C   0  0  0  0  0  0  0  0  0  0  0  0
    2.1410    4.6060    1.3190 C   0  0  0  0  0  0  0  0  0  0  0  0
    3.2550    5.5260   -1.0480 N   0  0  0  0  0  0  0  0  0  0  0  0
    1.6670    4.2440    2.5270 N   0  0  0  0  0  0  0  0  0  0  0  0
    2.9240    5.7550    1.3110 C   0  0  0  0  0  0  0  0  0  0  0  0
    3.4880    6.2160    0.0920 C   0  0  0  0  0  0  0  0  0  0  0  0
    2.2270    5.3740    3.5640 S   0  0  0  0  0  0  0  0  0  0  0  0
    3.0660    6.3250    2.5310 N   0  0  0  0  0  0  0  0  0  0  0  0
    4.3340    7.4320   -0.0000 C   0  0  1  0  0  0  0  0  0  0  0  0
    4.8070    8.5000    1.3530 B   0  0  0  0  0  0  0  0  0  0  0  0
    4.8920    7.9250   -1.1710 C   0  0  0  0  0  0  0  0  0  0  0  0
    5.7220    9.5520    0.2780 C   0  0  0  0  0  0  0  0  0  0  0  0
    4.8050    7.3560   -2.8230 S   0  0  0  0  0  0  0  0  0  0  0  0
    5.6420    9.0800   -0.9960 C   0  0  0  0  0  0  0  0  0  0  0  0
    6.4240   10.7500    0.6080 C   0  0  0  0  0  0  0  0  0  0  0  0
    5.8300    8.7480   -3.2860 C   0  0  0  0  0  0  0  0  0  0  0  0
    6.1860    9.5600   -2.2180 C   0  0  0  0  0  0  0  0  0  0  0  0
    7.6870   10.6190    0.9590 C   0  0  0  0  0  0  0  0  0  0  0  0
    5.7250   12.3480    0.6370 S   0  0  0  0  0  0  0  0  0  0  0  0
    8.2040   11.8580    1.2670 C   0  0  0  0  0  0  0  0  0  0  0  0
    7.3050   12.8960    1.1490 C   0  0  0  0  0  0  0  0  0  0  0  0
   -1.2070   -0.4870   -0.0580 H   0  0  0  0  0  0  0  0  0  0  0  0
    0.9520   -0.4800   -1.3420 H   0  0  0  0  0  0  0  0  0  0  0  0
    2.4120    1.5520   -1.2530 H   0  0  0  0  0  0  0  0  0  0  0  0
   -0.5560    3.3530    1.3420 H   0  0  0  0  0  0  0  0  0  0  0  0
    2.3570    3.9230   -1.9990 H   0  0  0  0  0  0  0  0  0  0  0  0
    6.1020    8.8660   -4.3270 H   0  0  0  0  0  0  0  0  0  0  0  0
    6.8060   10.4470   -2.2950 H   0  0  0  0  0  0  0  0  0  0  0  0
    9.2410   11.9340    1.5710 H   0  0  0  0  0  0  0  0  0  0  0  0
    7.4720   13.9480    1.3350 H   0  0  0  0  0  0  0  0  0  0  0  0
  1  3  2  0  0  0  0
  2  4  2  0  0  0  0
  2  1  1  0  0  0  0
  3  5  1  0  0  0  0
  4  6  1  0  0  0  0
  5 32  1  0  0  0  0
  6  7  1  0  0  0  0
  6  5  2  0  0  0  0
  7  9  1  0  0  0  0
  8  7  2  0  0  0  0
  9 11  2  0  0  0  0
 10  8  1  0  0  0  0
 10 13  2  0  0  0  0
 11 14  1  0  0  0  0
 12  9  1  0  0  0  0
 12 15  2  0  0  0  0
 13 12  1  0  0  0  0
 15 14  1  0  0  0  0
 16 13  1  1  0  0  0
 16 17  1  0  0  0  0
 18 21  2  0  0  0  0
 18 16  1  0  0  0  0
 19 22  1  0  0  0  0
 19 17  2  0  0  0  0
 20 18  1  0  0  0  0
 21 19  1  0  0  0  0
 22 26  1  0  0  0  0
 22 25  2  0  0  0  0
 23 20  1  0  0  0  0
 23 24  2  0  0  0  0
 24 21  1  0  0  0  0
 25 27  1  0  0  0  0
 26 28  1  0  0  0  0
 27 36  1  0  0  0  0
 28 27  2  0  0  0  0
 28 37  1  0  0  0  0
 29  1  1  0  0  0  0
 30  2  1  0  0  0  0
 31  4  1  0  0  0  0
 33  8  1  0  0  0  0
 34 23  1  0  0  0  0
 35 24  1  0  0  0  0
M  END
$$$$
scan_sander_basal_param/min_pdbs/min_pdb_C271_105.pdb
 OpenBabel10021702303D

 37 42  0  0  1  0  0  0  0  0999 V2000
   -0.4560    0.3160   -0.1860 C   0  0  0  0  0  0  0  0  0  0  0  0
    0.5220    0.5210   -1.1720 C   0  0  0  0  0  0  0  0  0  0  0  0
   -0.6540    1.1760    0.8310 N   0  0  0  0  0  0  0  0  0  0  0  0
    1.3330    1.6640   -1.0980 C   0  0  0  0  0  0  0  0  0  0  0  0
    0.1290    2.2730    0.9020 C   0  0  0  0  0  0  0  0  0  0  0  0
    1.1510    2.5780   -0.0330 C   0  0  0  0  0  0  0  0  0  0  0  0
    1.9810    3.8190    0.0690 C   0  0  0  0  0  0  0  0  0  0  0  0
    2.2650    4.5960   -1.0750 C   0  0  0  0  0  0  0  0  0  0  0  0
    2.5340    4.2970    1.2790 C   0  0  0  0  0  0  0  0  0  0  0  0
    3.0040    5.7220   -1.0520 N   0  0  0  0  0  0  0  0  0  0  0  0
    2.3870    3.6780    2.4670 N   0  0  0  0  0  0  0  0  0  0  0  0
    3.3000    5.4580    1.3080 C   0  0  0  0  0  0  0  0  0  0  0  0
    3.5320    6.1780    0.1060 C   0  0  0  0  0  0  0  0  0  0  0  0
    3.2090    4.6000    3.5360 S   0  0  0  0  0  0  0  0  0  0  0  0
    3.7600    5.7760    2.5410 N   0  0  0  0  0  0  0  0  0  0  0  0
    4.3370    7.4240    0.0530 C   0  0  1  0  0  0  0  0  0  0  0  0
    5.1560    8.2170    1.4290 B   0  0  0  0  0  0  0  0  0  0  0  0
    4.5770    8.1670   -1.0950 C   0  0  0  0  0  0  0  0  0  0  0  0
    5.7800    9.4990    0.3950 C   0  0  0  0  0  0  0  0  0  0  0  0
    4.0500    7.9440   -2.7470 S   0  0  0  0  0  0  0  0  0  0  0  0
    5.3600    9.2930   -0.8840 C   0  0  0  0  0  0  0  0  0  0  0  0
    6.5430   10.6430    0.7800 C   0  0  0  0  0  0  0  0  0  0  0  0
    4.9310    9.4460   -3.1610 C   0  0  0  0  0  0  0  0  0  0  0  0
    5.5660   10.0380   -2.0770 C   0  0  0  0  0  0  0  0  0  0  0  0
    7.8310   10.6210    0.4980 C   0  0  0  0  0  0  0  0  0  0  0  0
    5.9230   12.0080    1.6710 S   0  0  0  0  0  0  0  0  0  0  0  0
    8.4210   11.7700    0.9750 C   0  0  0  0  0  0  0  0  0  0  0  0
    7.5590   12.6270    1.6230 C   0  0  0  0  0  0  0  0  0  0  0  0
   -1.1040   -0.5600   -0.2120 H   0  0  0  0  0  0  0  0  0  0  0  0
    0.6480   -0.1970   -1.9770 H   0  0  0  0  0  0  0  0  0  0  0  0
    2.0990    1.8390   -1.8480 H   0  0  0  0  0  0  0  0  0  0  0  0
   -0.0760    2.9450    1.7340 H   0  0  0  0  0  0  0  0  0  0  0  0
    1.8740    4.3060   -2.0500 H   0  0  0  0  0  0  0  0  0  0  0  0
    4.9180    9.7870   -4.1870 H   0  0  0  0  0  0  0  0  0  0  0  0
    6.1530   10.9480   -2.1260 H   0  0  0  0  0  0  0  0  0  0  0  0
    9.4830   11.9200    0.8180 H   0  0  0  0  0  0  0  0  0  0  0  0
    7.7830   13.5820    2.0800 H   0  0  0  0  0  0  0  0  0  0  0  0
  1  3  2  0  0  0  0
  2  4  2  0  0  0  0
  2  1  1  0  0  0  0
  3  5  1  0  0  0  0
  4  6  1  0  0  0  0
  5 32  1  0  0  0  0
  6  7  1  0  0  0  0
  6  5  2  0  0  0  0
  7  9  1  0  0  0  0
  8 10  1  0  0  0  0
  8  7  2  0  0  0  0
  9 12  1  0  0  0  0
  9 11  2  0  0  0  0
 10 13  2  0  0  0  0
 11 14  1  0  0  0  0
 12 15  2  0  0  0  0
 13 12  1  0  0  0  0
 15 14  1  0  0  0  0
 16 13  1  6  0  0  0
 16 17  1  0  0  0  0
 18 21  2  0  0  0  0
 18 16  1  0  0  0  0
 19 22  1  0  0  0  0
 19 17  2  0  0  0  0
 20 18  1  0  0  0  0
 21 19  1  0  0  0  0
 22 26  1  0  0  0  0
 23 20  1  0  0  0  0
 23 24  2  0  0  0  0
 24 21  1  0  0  0  0
 25 22  2  0  0  0  0
 25 27  1  0  0  0  0
 27 28  2  0  0  0  0
 28 26  1  0  0  0  0
 28 37  1  0  0  0  0
 29  1  1  0  0  0  0
 30  2  1  0  0  0  0
 31  4  1  0  0  0  0
 33  8  1  0  0  0  0
 34 23  1  0  0  0  0
 35 24  1  0  0  0  0
 36 27  1  0  0  0  0
M  END
$$$$
scan_sander_basal_param/min_pdbs/min_pdb_C271_120.pdb
 OpenBabel10021702303D

 37 42  0  0  1  0  0  0  0  0999 V2000
   -0.4590    0.3170   -0.1730 C   0  0  0  0  0  0  0  0  0  0  0  0
    0.5260    0.5120   -1.1540 C   0  0  0  0  0  0  0  0  0  0  0  0
   -0.6620    1.1840    0.8360 N   0  0  0  0  0  0  0  0  0  0  0  0
    1.3380    1.6550   -1.0820 C   0  0  0  0  0  0  0  0  0  0  0  0
    0.1220    2.2800    0.9050 C   0  0  0  0  0  0  0  0  0  0  0  0
    1.1510    2.5770   -0.0250 C   0  0  0  0  0  0  0  0  0  0  0  0
    1.9830    3.8170    0.0740 C   0  0  0  0  0  0  0  0  0  0  0  0
    2.2760    4.5850   -1.0740 C   0  0  0  0  0  0  0  0  0  0  0  0
    2.5280    4.3020    1.2840 C   0  0  0  0  0  0  0  0  0  0  0  0
    3.0160    5.7110   -1.0540 N   0  0  0  0  0  0  0  0  0  0  0  0
    2.3720    3.6920    2.4750 N   0  0  0  0  0  0  0  0  0  0  0  0
    3.2950    5.4620    1.3100 C   0  0  0  0  0  0  0  0  0  0  0  0
    3.5370    6.1740    0.1050 C   0  0  0  0  0  0  0  0  0  0  0  0
    3.1880    4.6200    3.5430 S   0  0  0  0  0  0  0  0  0  0  0  0
    3.7470    5.7890    2.5440 N   0  0  0  0  0  0  0  0  0  0  0  0
    4.3440    7.4190    0.0490 C   0  0  1  0  0  0  0  0  0  0  0  0
    5.1530    8.2200    1.4250 B   0  0  0  0  0  0  0  0  0  0  0  0
    4.5930    8.1540   -1.1010 C   0  0  0  0  0  0  0  0  0  0  0  0
    5.7950    9.4910    0.3870 C   0  0  0  0  0  0  0  0  0  0  0  0
    4.0660    7.9260   -2.7530 S   0  0  0  0  0  0  0  0  0  0  0  0
    5.3770    9.2810   -0.8930 C   0  0  0  0  0  0  0  0  0  0  0  0
    6.5430   10.6430    0.7830 C   0  0  0  0  0  0  0  0  0  0  0  0
    4.9430    9.4270   -3.1710 C   0  0  0  0  0  0  0  0  0  0  0  0
    5.5780   10.0220   -2.0890 C   0  0  0  0  0  0  0  0  0  0  0  0
    7.7560   10.7740    0.2820 C   0  0  0  0  0  0  0  0  0  0  0  0
    6.0270   11.8050    1.9800 S   0  0  0  0  0  0  0  0  0  0  0  0
    8.3550   11.8920    0.8180 C   0  0  0  0  0  0  0  0  0  0  0  0
    7.5820   12.5690    1.7350 C   0  0  0  0  0  0  0  0  0  0  0  0
   -1.1080   -0.5590   -0.1980 H   0  0  0  0  0  0  0  0  0  0  0  0
    0.6560   -0.2120   -1.9530 H   0  0  0  0  0  0  0  0  0  0  0  0
    2.1100    1.8230   -1.8280 H   0  0  0  0  0  0  0  0  0  0  0  0
   -0.0870    2.9580    1.7310 H   0  0  0  0  0  0  0  0  0  0  0  0
    1.8910    4.2890   -2.0500 H   0  0  0  0  0  0  0  0  0  0  0  0
    4.9290    9.7670   -4.1980 H   0  0  0  0  0  0  0  0  0  0  0  0
    6.1620   10.9350   -2.1410 H   0  0  0  0  0  0  0  0  0  0  0  0
    9.3570   12.1550    0.5000 H   0  0  0  0  0  0  0  0  0  0  0  0
    7.8300   13.4640    2.2880 H   0  0  0  0  0  0  0  0  0  0  0  0
  1  3  2  0  0  0  0
  2  4  2  0  0  0  0
  2  1  1  0  0  0  0
  3  5  1  0  0  0  0
  4  6  1  0  0  0  0
  5 32  1  0  0  0  0
  6  7  1  0  0  0  0
  6  5  2  0  0  0  0
  7  9  1  0  0  0  0
  8 10  1  0  0  0  0
  8  7  2  0  0  0  0
  9 12  1  0  0  0  0
  9 11  2  0  0  0  0
 10 13  2  0  0  0  0
 11 14  1  0  0  0  0
 12 15  2  0  0  0  0
 13 12  1  0  0  0  0
 15 14  1  0  0  0  0
 16 13  1  6  0  0  0
 16 17  1  0  0  0  0
 18 21  2  0  0  0  0
 18 16  1  0  0  0  0
 19 22  1  0  0  0  0
 19 17  2  0  0  0  0
 20 18  1  0  0  0  0
 21 19  1  0  0  0  0
 22 26  1  0  0  0  0
 23 20  1  0  0  0  0
 23 24  2  0  0  0  0
 24 21  1  0  0  0  0
 25 22  2  0  0  0  0
 25 27  1  0  0  0  0
 27 28  2  0  0  0  0
 28 26  1  0  0  0  0
 28 37  1  0  0  0  0
 29  1  1  0  0  0  0
 30  2  1  0  0  0  0
 31  4  1  0  0  0  0
 33  8  1  0  0  0  0
 34 23  1  0  0  0  0
 35 24  1  0  0  0  0
 36 27  1  0  0  0  0
M  END
$$$$
scan_sander_basal_param/min_pdbs/min_pdb_C271_135.pdb
 OpenBabel10021702303D

 37 42  0  0  1  0  0  0  0  0999 V2000
   -0.4600    0.3150   -0.1610 C   0  0  0  0  0  0  0  0  0  0  0  0
    0.5350    0.5010   -1.1340 C   0  0  0  0  0  0  0  0  0  0  0  0
   -0.6710    1.1920    0.8390 N   0  0  0  0  0  0  0  0  0  0  0  0
    1.3470    1.6440   -1.0650 C   0  0  0  0  0  0  0  0  0  0  0  0
    0.1140    2.2880    0.9050 C   0  0  0  0  0  0  0  0  0  0  0  0
    1.1510    2.5760   -0.0180 C   0  0  0  0  0  0  0  0  0  0  0  0
    1.9830    3.8160    0.0770 C   0  0  0  0  0  0  0  0  0  0  0  0
    2.2880    4.5740   -1.0750 C   0  0  0  0  0  0  0  0  0  0  0  0
    2.5180    4.3120    1.2870 C   0  0  0  0  0  0  0  0  0  0  0  0
    3.0280    5.6980   -1.0580 N   0  0  0  0  0  0  0  0  0  0  0  0
    2.3510    3.7120    2.4830 N   0  0  0  0  0  0  0  0  0  0  0  0
    3.2860    5.4710    1.3100 C   0  0  0  0  0  0  0  0  0  0  0  0
    3.5390    6.1720    0.1010 C   0  0  0  0  0  0  0  0  0  0  0  0
    3.1570    4.6490    3.5500 S   0  0  0  0  0  0  0  0  0  0  0  0
    3.7270    5.8080    2.5450 N   0  0  0  0  0  0  0  0  0  0  0  0
    4.3470    7.4170    0.0410 C   0  0  1  0  0  0  0  0  0  0  0  0
    5.1430    8.2280    1.4170 B   0  0  0  0  0  0  0  0  0  0  0  0
    4.6070    8.1430   -1.1120 C   0  0  0  0  0  0  0  0  0  0  0  0
    5.8070    9.4880    0.3770 C   0  0  0  0  0  0  0  0  0  0  0  0
    4.0820    7.9040   -2.7630 S   0  0  0  0  0  0  0  0  0  0  0  0
    5.3930    9.2710   -0.9070 C   0  0  0  0  0  0  0  0  0  0  0  0
    6.5480   10.6400    0.7930 C   0  0  0  0  0  0  0  0  0  0  0  0
    4.9550    9.4050   -3.1870 C   0  0  0  0  0  0  0  0  0  0  0  0
    5.5880   10.0070   -2.1090 C   0  0  0  0  0  0  0  0  0  0  0  0
    7.6380   10.9460    0.1140 C   0  0  0  0  0  0  0  0  0  0  0  0
    6.2070   11.5690    2.2320 S   0  0  0  0  0  0  0  0  0  0  0  0
    8.2620   12.0240    0.7020 C   0  0  0  0  0  0  0  0  0  0  0  0
    7.6380   12.4940    1.8370 C   0  0  0  0  0  0  0  0  0  0  0  0
   -1.1090   -0.5590   -0.1830 H   0  0  0  0  0  0  0  0  0  0  0  0
    0.6710   -0.2300   -1.9250 H   0  0  0  0  0  0  0  0  0  0  0  0
    2.1260    1.8040   -1.8060 H   0  0  0  0  0  0  0  0  0  0  0  0
   -0.1020    2.9740    1.7230 H   0  0  0  0  0  0  0  0  0  0  0  0
    1.9110    4.2690   -2.0520 H   0  0  0  0  0  0  0  0  0  0  0  0
    4.9370    9.7410   -4.2160 H   0  0  0  0  0  0  0  0  0  0  0  0
    6.1640   10.9240   -2.1690 H   0  0  0  0  0  0  0  0  0  0  0  0
    9.1690   12.4140    0.2560 H   0  0  0  0  0  0  0  0  0  0  0  0
    7.9330   13.3190    2.4690 H   0  0  0  0  0  0  0  0  0  0  0  0
  1  3  2  0  0  0  0
  2  4  2  0  0  0  0
  2  1  1  0  0  0  0
  3  5  1  0  0  0  0
  4  6  1  0  0  0  0
  5 32  1  0  0  0  0
  6  7  1  0  0  0  0
  6  5  2  0  0  0  0
  7  9  1  0  0  0  0
  8 10  1  0  0  0  0
  8  7  2  0  0  0  0
  9 12  1  0  0  0  0
  9 11  2  0  0  0  0
 10 13  2  0  0  0  0
 11 14  1  0  0  0  0
 12 15  2  0  0  0  0
 13 12  1  0  0  0  0
 15 14  1  0  0  0  0
 16 13  1  6  0  0  0
 16 17  1  0  0  0  0
 18 21  2  0  0  0  0
 18 16  1  0  0  0  0
 19 22  1  0  0  0  0
 19 17  2  0  0  0  0
 20 18  1  0  0  0  0
 21 19  1  0  0  0  0
 22 26  1  0  0  0  0
 23 20  1  0  0  0  0
 23 24  2  0  0  0  0
 24 21  1  0  0  0  0
 25 27  1  0  0  0  0
 25 22  2  0  0  0  0
 27 28  2  0  0  0  0
 28 26  1  0  0  0  0
 28 37  1  0  0  0  0
 29  1  1  0  0  0  0
 30  2  1  0  0  0  0
 31  4  1  0  0  0  0
 33  8  1  0  0  0  0
 34 23  1  0  0  0  0
 35 24  1  0  0  0  0
 36 27  1  0  0  0  0
M  END
$$$$
scan_sander_basal_param/min_pdbs/min_pdb_C271_150.pdb
 OpenBabel10021702303D

 37 42  0  0  1  0  0  0  0  0999 V2000
   -0.4600    0.3140   -0.1450 C   0  0  0  0  0  0  0  0  0  0  0  0
    0.5430    0.4910   -1.1120 C   0  0  0  0  0  0  0  0  0  0  0  0
   -0.6790    1.2000    0.8450 N   0  0  0  0  0  0  0  0  0  0  0  0
    1.3550    1.6350   -1.0480 C   0  0  0  0  0  0  0  0  0  0  0  0
    0.1050    2.2970    0.9070 C   0  0  0  0  0  0  0  0  0  0  0  0
    1.1500    2.5760   -0.0110 C   0  0  0  0  0  0  0  0  0  0  0  0
    1.9820    3.8170    0.0790 C   0  0  0  0  0  0  0  0  0  0  0  0
    2.2950    4.5640   -1.0770 C   0  0  0  0  0  0  0  0  0  0  0  0
    2.5070    4.3240    1.2890 C   0  0  0  0  0  0  0  0  0  0  0  0
    3.0360    5.6890   -1.0650 N   0  0  0  0  0  0  0  0  0  0  0  0
    2.3300    3.7350    2.4890 N   0  0  0  0  0  0  0  0  0  0  0  0
    3.2740    5.4840    1.3080 C   0  0  0  0  0  0  0  0  0  0  0  0
    3.5370    6.1740    0.0940 C   0  0  0  0  0  0  0  0  0  0  0  0
    3.1270    4.6830    3.5540 S   0  0  0  0  0  0  0  0  0  0  0  0
    3.7060    5.8320    2.5430 N   0  0  0  0  0  0  0  0  0  0  0  0
    4.3460    7.4180    0.0300 C   0  0  1  0  0  0  0  0  0  0  0  0
    5.1290    8.2400    1.4030 B   0  0  0  0  0  0  0  0  0  0  0  0
    4.6170    8.1350   -1.1260 C   0  0  0  0  0  0  0  0  0  0  0  0
    5.8100    9.4910    0.3630 C   0  0  0  0  0  0  0  0  0  0  0  0
    4.0980    7.8780   -2.7770 S   0  0  0  0  0  0  0  0  0  0  0  0
    5.4050    9.2660   -0.9250 C   0  0  0  0  0  0  0  0  0  0  0  0
    6.5650   10.6300    0.8070 C   0  0  0  0  0  0  0  0  0  0  0  0
    4.9690    9.3760   -3.2120 C   0  0  0  0  0  0  0  0  0  0  0  0
    5.5980    9.9880   -2.1380 C   0  0  0  0  0  0  0  0  0  0  0  0
    7.4860   11.1300    0.0030 C   0  0  0  0  0  0  0  0  0  0  0  0
    6.4520   11.3120    2.4110 S   0  0  0  0  0  0  0  0  0  0  0  0
    8.1460   12.1610    0.6330 C   0  0  0  0  0  0  0  0  0  0  0  0
    7.7240   12.4050    1.9200 C   0  0  0  0  0  0  0  0  0  0  0  0
   -1.1090   -0.5600   -0.1640 H   0  0  0  0  0  0  0  0  0  0  0  0
    0.6850   -0.2470   -1.8950 H   0  0  0  0  0  0  0  0  0  0  0  0
    2.1390    1.7880   -1.7830 H   0  0  0  0  0  0  0  0  0  0  0  0
   -0.1170    2.9910    1.7160 H   0  0  0  0  0  0  0  0  0  0  0  0
    1.9270    4.2500   -2.0540 H   0  0  0  0  0  0  0  0  0  0  0  0
    4.9520    9.7030   -4.2430 H   0  0  0  0  0  0  0  0  0  0  0  0
    6.1660   10.9080   -2.2140 H   0  0  0  0  0  0  0  0  0  0  0  0
    8.9270   12.6900    0.0990 H   0  0  0  0  0  0  0  0  0  0  0  0
    8.0860   13.1530    2.6130 H   0  0  0  0  0  0  0  0  0  0  0  0
  1  3  2  0  0  0  0
  2  4  2  0  0  0  0
  2  1  1  0  0  0  0
  3  5  1  0  0  0  0
  4  6  1  0  0  0  0
  5 32  1  0  0  0  0
  6  7  1  0  0  0  0
  6  5  2  0  0  0  0
  7  9  1  0  0  0  0
  8 10  1  0  0  0  0
  8  7  2  0  0  0  0
  9 12  1  0  0  0  0
  9 11  2  0  0  0  0
 10 13  2  0  0  0  0
 11 14  1  0  0  0  0
 12 15  2  0  0  0  0
 13 12  1  0  0  0  0
 15 14  1  0  0  0  0
 16 13  1  6  0  0  0
 16 17  1  0  0  0  0
 18 21  2  0  0  0  0
 18 16  1  0  0  0  0
 19 22  1  0  0  0  0
 19 17  2  0  0  0  0
 20 18  1  0  0  0  0
 21 19  1  0  0  0  0
 22 26  1  0  0  0  0
 23 20  1  0  0  0  0
 23 24  2  0  0  0  0
 24 21  1  0  0  0  0
 25 27  1  0  0  0  0
 25 22  2  0  0  0  0
 27 28  2  0  0  0  0
 28 26  1  0  0  0  0
 28 37  1  0  0  0  0
 29  1  1  0  0  0  0
 30  2  1  0  0  0  0
 31  4  1  0  0  0  0
 33  8  1  0  0  0  0
 34 23  1  0  0  0  0
 35 24  1  0  0  0  0
 36 27  1  0  0  0  0
M  END
$$$$
scan_sander_basal_param/min_pdbs/min_pdb_C271_165.pdb
 OpenBabel10021702303D

 37 42  0  0  1  0  0  0  0  0999 V2000
   -0.4640    0.3170   -0.1340 C   0  0  0  0  0  0  0  0  0  0  0  0
    0.5460    0.4850   -1.0960 C   0  0  0  0  0  0  0  0  0  0  0  0
   -0.6890    1.2110    0.8470 N   0  0  0  0  0  0  0  0  0  0  0  0
    1.3580    1.6280   -1.0340 C   0  0  0  0  0  0  0  0  0  0  0  0
    0.0950    2.3070    0.9050 C   0  0  0  0  0  0  0  0  0  0  0  0
    1.1470    2.5780   -0.0070 C   0  0  0  0  0  0  0  0  0  0  0  0
    1.9790    3.8190    0.0790 C   0  0  0  0  0  0  0  0  0  0  0  0
    2.3010    4.5560   -1.0810 C   0  0  0  0  0  0  0  0  0  0  0  0
    2.4950    4.3360    1.2890 C   0  0  0  0  0  0  0  0  0  0  0  0
    3.0430    5.6810   -1.0720 N   0  0  0  0  0  0  0  0  0  0  0  0
    2.3090    3.7570    2.4920 N   0  0  0  0  0  0  0  0  0  0  0  0
    3.2640    5.4950    1.3030 C   0  0  0  0  0  0  0  0  0  0  0  0
    3.5360    6.1760    0.0860 C   0  0  0  0  0  0  0  0  0  0  0  0
    3.0990    4.7120    3.5550 S   0  0  0  0  0  0  0  0  0  0  0  0
    3.6870    5.8530    2.5390 N   0  0  0  0  0  0  0  0  0  0  0  0
    4.3460    7.4190    0.0180 C   0  0  1  0  0  0  0  0  0  0  0  0
    5.1180    8.2490    1.3910 B   0  0  0  0  0  0  0  0  0  0  0  0
    4.6280    8.1290   -1.1400 C   0  0  0  0  0  0  0  0  0  0  0  0
    5.8050    9.5000    0.3530 C   0  0  0  0  0  0  0  0  0  0  0  0
    4.1300    7.8460   -2.7930 S   0  0  0  0  0  0  0  0  0  0  0  0
    5.4150    9.2620   -0.9420 C   0  0  0  0  0  0  0  0  0  0  0  0
    6.5840   10.6170    0.8210 C   0  0  0  0  0  0  0  0  0  0  0  0
    5.0120    9.3310   -3.2410 C   0  0  0  0  0  0  0  0  0  0  0  0
    5.6280    9.9590   -2.1690 C   0  0  0  0  0  0  0  0  0  0  0  0
    7.2950   11.3210   -0.0400 C   0  0  0  0  0  0  0  0  0  0  0  0
    6.7240   11.0580    2.5070 S   0  0  0  0  0  0  0  0  0  0  0  0
    7.9950   12.3080    0.6190 C   0  0  0  0  0  0  0  0  0  0  0  0
    7.8100   12.3220    1.9820 C   0  0  0  0  0  0  0  0  0  0  0  0
   -1.1130   -0.5580   -0.1510 H   0  0  0  0  0  0  0  0  0  0  0  0
    0.6940   -0.2600   -1.8720 H   0  0  0  0  0  0  0  0  0  0  0  0
    2.1490    1.7750   -1.7660 H   0  0  0  0  0  0  0  0  0  0  0  0
   -0.1330    3.0080    1.7070 H   0  0  0  0  0  0  0  0  0  0  0  0
    1.9400    4.2350   -2.0580 H   0  0  0  0  0  0  0  0  0  0  0  0
    5.0100    9.6410   -4.2770 H   0  0  0  0  0  0  0  0  0  0  0  0
    6.1980   10.8760   -2.2610 H   0  0  0  0  0  0  0  0  0  0  0  0
    8.6220   12.9800    0.0450 H   0  0  0  0  0  0  0  0  0  0  0  0
    8.2460   12.9920    2.7110 H   0  0  0  0  0  0  0  0  0  0  0  0
  1  3  2  0  0  0  0
  2  4  2  0  0  0  0
  2  1  1  0  0  0  0
  3  5  1  0  0  0  0
  4  6  1  0  0  0  0
  5 32  1  0  0  0  0
  6  7  1  0  0  0  0
  6  5  2  0  0  0  0
  7  9  1  0  0  0  0
  8 10  1  0  0  0  0
  8  7  2  0  0  0  0
  9 12  1  0  0  0  0
  9 11  2  0  0  0  0
 10 13  2  0  0  0  0
 11 14  1  0  0  0  0
 12 15  2  0  0  0  0
 13 12  1  0  0  0  0
 15 14  1  0  0  0  0
 16 13  1  6  0  0  0
 16 17  1  0  0  0  0
 18 21  2  0  0  0  0
 18 16  1  0  0  0  0
 19 22  1  0  0  0  0
 19 17  2  0  0  0  0
 20 18  1  0  0  0  0
 21 19  1  0  0  0  0
 22 26  1  0  0  0  0
 23 20  1  0  0  0  0
 23 24  2  0  0  0  0
 24 21  1  0  0  0  0
 25 27  1  0  0  0  0
 25 22  2  0  0  0  0
 27 28  2  0  0  0  0
 28 26  1  0  0  0  0
 28 37  1  0  0  0  0
 29  1  1  0  0  0  0
 30  2  1  0  0  0  0
 31  4  1  0  0  0  0
 33  8  1  0  0  0  0
 34 23  1  0  0  0  0
 35 24  1  0  0  0  0
 36 27  1  0  0  0  0
M  END
$$$$
scan_sander_basal_param/min_pdbs/min_pdb_C271_180.pdb
 OpenBabel10021702303D

 37 42  0  0  1  0  0  0  0  0999 V2000
   -0.4770    0.3260   -0.1270 C   0  0  0  0  0  0  0  0  0  0  0  0
    0.5370    0.4870   -1.0840 C   0  0  0  0  0  0  0  0  0  0  0  0
   -0.7050    1.2260    0.8490 N   0  0  0  0  0  0  0  0  0  0  0  0
    1.3530    1.6280   -1.0250 C   0  0  0  0  0  0  0  0  0  0  0  0
    0.0820    2.3200    0.9050 C   0  0  0  0  0  0  0  0  0  0  0  0
    1.1390    2.5840   -0.0040 C   0  0  0  0  0  0  0  0  0  0  0  0
    1.9740    3.8230    0.0800 C   0  0  0  0  0  0  0  0  0  0  0  0
    2.3040    4.5530   -1.0820 C   0  0  0  0  0  0  0  0  0  0  0  0
    2.4860    4.3450    1.2900 C   0  0  0  0  0  0  0  0  0  0  0  0
    3.0480    5.6760   -1.0750 N   0  0  0  0  0  0  0  0  0  0  0  0
    2.2930    3.7720    2.4940 N   0  0  0  0  0  0  0  0  0  0  0  0
    3.2580    5.5010    1.3020 C   0  0  0  0  0  0  0  0  0  0  0  0
    3.5380    6.1750    0.0820 C   0  0  0  0  0  0  0  0  0  0  0  0
    3.0800    4.7300    3.5560 S   0  0  0  0  0  0  0  0  0  0  0  0
    3.6770    5.8630    2.5370 N   0  0  0  0  0  0  0  0  0  0  0  0
    4.3520    7.4160    0.0110 C   0  0  1  0  0  0  0  0  0  0  0  0
    5.1190    8.2490    1.3830 B   0  0  0  0  0  0  0  0  0  0  0  0
    4.6420    8.1200   -1.1480 C   0  0  0  0  0  0  0  0  0  0  0  0
    5.7990    9.5070    0.3480 C   0  0  0  0  0  0  0  0  0  0  0  0
    4.1750    7.8100   -2.8050 S   0  0  0  0  0  0  0  0  0  0  0  0
    5.4290    9.2540   -0.9520 C   0  0  0  0  0  0  0  0  0  0  0  0
    6.6040   10.6030    0.8230 C   0  0  0  0  0  0  0  0  0  0  0  0
    5.0830    9.2760   -3.2620 C   0  0  0  0  0  0  0  0  0  0  0  0
    5.6800    9.9210   -2.1890 C   0  0  0  0  0  0  0  0  0  0  0  0
    7.0700   11.4980   -0.0290 C   0  0  0  0  0  0  0  0  0  0  0  0
    7.0180   10.8320    2.5070 S   0  0  0  0  0  0  0  0  0  0  0  0
    7.8090   12.4490    0.6370 C   0  0  0  0  0  0  0  0  0  0  0  0
    7.8910   12.2570    1.9970 C   0  0  0  0  0  0  0  0  0  0  0  0
   -1.1290   -0.5470   -0.1420 H   0  0  0  0  0  0  0  0  0  0  0  0
    0.6870   -0.2630   -1.8560 H   0  0  0  0  0  0  0  0  0  0  0  0
    2.1460    1.7690   -1.7540 H   0  0  0  0  0  0  0  0  0  0  0  0
   -0.1470    3.0260    1.7020 H   0  0  0  0  0  0  0  0  0  0  0  0
    1.9460    4.2280   -2.0590 H   0  0  0  0  0  0  0  0  0  0  0  0
    5.1110    9.5630   -4.3050 H   0  0  0  0  0  0  0  0  0  0  0  0
    6.2670   10.8250   -2.2920 H   0  0  0  0  0  0  0  0  0  0  0  0
    8.2610   13.2560    0.0710 H   0  0  0  0  0  0  0  0  0  0  0  0
    8.4090   12.8610    2.7300 H   0  0  0  0  0  0  0  0  0  0  0  0
  1  3  2  0  0  0  0
  2  4  2  0  0  0  0
  2  1  1  0  0  0  0
  3  5  1  0  0  0  0
  4  6  1  0  0  0  0
  5 32  1  0  0  0  0
  6  7  1  0  0  0  0
  6  5  2  0  0  0  0
  7  9  1  0  0  0  0
  8 10  1  0  0  0  0
  8  7  2  0  0  0  0
  9 12  1  0  0  0  0
  9 11  2  0  0  0  0
 10 13  2  0  0  0  0
 11 14  1  0  0  0  0
 12 15  2  0  0  0  0
 13 12  1  0  0  0  0
 15 14  1  0  0  0  0
 16 13  1  6  0  0  0
 16 17  1  0  0  0  0
 18 21  2  0  0  0  0
 18 16  1  0  0  0  0
 19 22  1  0  0  0  0
 19 17  2  0  0  0  0
 20 18  1  0  0  0  0
 21 19  1  0  0  0  0
 22 26  1  0  0  0  0
 23 20  1  0  0  0  0
 23 24  2  0  0  0  0
 24 21  1  0  0  0  0
 25 27  1  0  0  0  0
 25 22  2  0  0  0  0
 27 28  2  0  0  0  0
 28 26  1  0  0  0  0
 28 37  1  0  0  0  0
 29  1  1  0  0  0  0
 30  2  1  0  0  0  0
 31  4  1  0  0  0  0
 33  8  1  0  0  0  0
 34 23  1  0  0  0  0
 35 24  1  0  0  0  0
 36 27  1  0  0  0  0
M  END
$$$$
scan_sander_basal_param/min_pdbs/min_pdb_C271_195.pdb
 OpenBabel10021702303D

 37 42  0  0  1  0  0  0  0  0999 V2000
   -0.4960    0.3390   -0.1270 C   0  0  0  0  0  0  0  0  0  0  0  0
    0.5250    0.4910   -1.0790 C   0  0  0  0  0  0  0  0  0  0  0  0
   -0.7260    1.2440    0.8430 N   0  0  0  0  0  0  0  0  0  0  0  0
    1.3450    1.6300   -1.0190 C   0  0  0  0  0  0  0  0  0  0  0  0
    0.0660    2.3350    0.9010 C   0  0  0  0  0  0  0  0  0  0  0  0
    1.1290    2.5900   -0.0020 C   0  0  0  0  0  0  0  0  0  0  0  0
    1.9690    3.8260    0.0820 C   0  0  0  0  0  0  0  0  0  0  0  0
    2.3090    4.5510   -1.0810 C   0  0  0  0  0  0  0  0  0  0  0  0
    2.4760    4.3500    1.2920 C   0  0  0  0  0  0  0  0  0  0  0  0
    3.0580    5.6700   -1.0740 N   0  0  0  0  0  0  0  0  0  0  0  0
    2.2720    3.7830    2.4980 N   0  0  0  0  0  0  0  0  0  0  0  0
    3.2520    5.5040    1.3050 C   0  0  0  0  0  0  0  0  0  0  0  0
    3.5420    6.1720    0.0850 C   0  0  0  0  0  0  0  0  0  0  0  0
    3.0570    4.7430    3.5610 S   0  0  0  0  0  0  0  0  0  0  0  0
    3.6650    5.8690    2.5420 N   0  0  0  0  0  0  0  0  0  0  0  0
    4.3600    7.4100    0.0140 C   0  0  1  0  0  0  0  0  0  0  0  0
    5.1220    8.2470    1.3880 B   0  0  0  0  0  0  0  0  0  0  0  0
    4.6600    8.1070   -1.1460 C   0  0  0  0  0  0  0  0  0  0  0  0
    5.7920    9.5090    0.3520 C   0  0  0  0  0  0  0  0  0  0  0  0
    4.2300    7.7780   -2.8100 S   0  0  0  0  0  0  0  0  0  0  0  0
    5.4450    9.2420   -0.9490 C   0  0  0  0  0  0  0  0  0  0  0  0
    6.6230   10.5910    0.8120 C   0  0  0  0  0  0  0  0  0  0  0  0
    5.1660    9.2260   -3.2670 C   0  0  0  0  0  0  0  0  0  0  0  0
    5.7420    9.8830   -2.1890 C   0  0  0  0  0  0  0  0  0  0  0  0
    6.8260   11.6350    0.0290 C   0  0  0  0  0  0  0  0  0  0  0  0
    7.3280   10.6560    2.4110 S   0  0  0  0  0  0  0  0  0  0  0  0
    7.6080   12.5660    0.6750 C   0  0  0  0  0  0  0  0  0  0  0  0
    7.9750   12.2130    1.9540 C   0  0  0  0  0  0  0  0  0  0  0  0
   -1.1510   -0.5310   -0.1430 H   0  0  0  0  0  0  0  0  0  0  0  0
    0.6760   -0.2610   -1.8470 H   0  0  0  0  0  0  0  0  0  0  0  0
    2.1440    1.7640   -1.7430 H   0  0  0  0  0  0  0  0  0  0  0  0
   -0.1660    3.0440    1.6940 H   0  0  0  0  0  0  0  0  0  0  0  0
    1.9560    4.2230   -2.0590 H   0  0  0  0  0  0  0  0  0  0  0  0
    5.2290    9.4930   -4.3130 H   0  0  0  0  0  0  0  0  0  0  0  0
    6.3470   10.7750   -2.2870 H   0  0  0  0  0  0  0  0  0  0  0  0
    7.8720   13.4810    0.1570 H   0  0  0  0  0  0  0  0  0  0  0  0
    8.5790   12.7710    2.6560 H   0  0  0  0  0  0  0  0  0  0  0  0
  1  3  2  0  0  0  0
  2  4  2  0  0  0  0
  2  1  1  0  0  0  0
  3  5  1  0  0  0  0
  4  6  1  0  0  0  0
  5 32  1  0  0  0  0
  6  7  1  0  0  0  0
  6  5  2  0  0  0  0
  7  9  1  0  0  0  0
  8 10  1  0  0  0  0
  8  7  2  0  0  0  0
  9 12  1  0  0  0  0
  9 11  2  0  0  0  0
 10 13  2  0  0  0  0
 11 14  1  0  0  0  0
 12 15  2  0  0  0  0
 13 12  1  0  0  0  0
 15 14  1  0  0  0  0
 16 13  1  6  0  0  0
 16 17  1  0  0  0  0
 18 21  2  0  0  0  0
 18 16  1  0  0  0  0
 19 22  1  0  0  0  0
 19 17  2  0  0  0  0
 20 18  1  0  0  0  0
 21 19  1  0  0  0  0
 22 26  1  0  0  0  0
 23 20  1  0  0  0  0
 23 24  2  0  0  0  0
 24 21  1  0  0  0  0
 25 27  1  0  0  0  0
 25 22  2  0  0  0  0
 27 28  2  0  0  0  0
 28 26  1  0  0  0  0
 28 37  1  0  0  0  0
 29  1  1  0  0  0  0
 30  2  1  0  0  0  0
 31  4  1  0  0  0  0
 33  8  1  0  0  0  0
 34 23  1  0  0  0  0
 35 24  1  0  0  0  0
 36 27  1  0  0  0  0
M  END
$$$$
scan_sander_basal_param/min_pdbs/min_pdb_C271_210.pdb
 OpenBabel10021702303D

 37 42  0  0  1  0  0  0  0  0999 V2000
   -0.5100    0.3490   -0.1310 C   0  0  0  0  0  0  0  0  0  0  0  0
    0.5230    0.4920   -1.0720 C   0  0  0  0  0  0  0  0  0  0  0  0
   -0.7480    1.2600    0.8310 N   0  0  0  0  0  0  0  0  0  0  0  0
    1.3450    1.6280   -1.0090 C   0  0  0  0  0  0  0  0  0  0  0  0
    0.0460    2.3490    0.8910 C   0  0  0  0  0  0  0  0  0  0  0  0
    1.1210    2.5960   -0.0010 C   0  0  0  0  0  0  0  0  0  0  0  0
    1.9630    3.8300    0.0850 C   0  0  0  0  0  0  0  0  0  0  0  0
    2.3190    4.5460   -1.0790 C   0  0  0  0  0  0  0  0  0  0  0  0
    2.4570    4.3600    1.2980 C   0  0  0  0  0  0  0  0  0  0  0  0
    3.0710    5.6630   -1.0700 N   0  0  0  0  0  0  0  0  0  0  0  0
    2.2380    3.8010    2.5050 N   0  0  0  0  0  0  0  0  0  0  0  0
    3.2370    5.5120    1.3130 C   0  0  0  0  0  0  0  0  0  0  0  0
    3.5420    6.1710    0.0920 C   0  0  0  0  0  0  0  0  0  0  0  0
    3.0120    4.7660    3.5720 S   0  0  0  0  0  0  0  0  0  0  0  0
    3.6370    5.8830    2.5520 N   0  0  0  0  0  0  0  0  0  0  0  0
    4.3640    7.4060    0.0240 C   0  0  1  0  0  0  0  0  0  0  0  0
    5.1130    8.2530    1.4020 B   0  0  0  0  0  0  0  0  0  0  0  0
    4.6770    8.0940   -1.1390 C   0  0  0  0  0  0  0  0  0  0  0  0
    5.7880    9.5070    0.3610 C   0  0  0  0  0  0  0  0  0  0  0  0
    4.2830    7.7520   -2.8090 S   0  0  0  0  0  0  0  0  0  0  0  0
    5.4610    9.2270   -0.9400 C   0  0  0  0  0  0  0  0  0  0  0  0
    6.6430   10.5800    0.7880 C   0  0  0  0  0  0  0  0  0  0  0  0
    5.2390    9.1910   -3.2600 C   0  0  0  0  0  0  0  0  0  0  0  0
    5.7940    9.8550   -2.1750 C   0  0  0  0  0  0  0  0  0  0  0  0
    6.5980   11.7240    0.1300 C   0  0  0  0  0  0  0  0  0  0  0  0
    7.6380   10.5240    2.2230 S   0  0  0  0  0  0  0  0  0  0  0  0
    7.4280   12.6430    0.7320 C   0  0  0  0  0  0  0  0  0  0  0  0
    8.0700   12.1780    1.8580 C   0  0  0  0  0  0  0  0  0  0  0  0
   -1.1680   -0.5190   -0.1500 H   0  0  0  0  0  0  0  0  0  0  0  0
    0.6810   -0.2660   -1.8330 H   0  0  0  0  0  0  0  0  0  0  0  0
    2.1530    1.7560   -1.7250 H   0  0  0  0  0  0  0  0  0  0  0  0
   -0.1930    3.0650    1.6760 H   0  0  0  0  0  0  0  0  0  0  0  0
    1.9770    4.2140   -2.0580 H   0  0  0  0  0  0  0  0  0  0  0  0
    5.3260    9.4480   -4.3070 H   0  0  0  0  0  0  0  0  0  0  0  0
    6.4080   10.7440   -2.2590 H   0  0  0  0  0  0  0  0  0  0  0  0
    7.5150   13.6340    0.3020 H   0  0  0  0  0  0  0  0  0  0  0  0
    8.7630   12.7050    2.4990 H   0  0  0  0  0  0  0  0  0  0  0  0
  1  3  2  0  0  0  0
  2  4  2  0  0  0  0
  2  1  1  0  0  0  0
  3  5  1  0  0  0  0
  4  6  1  0  0  0  0
  5 32  1  0  0  0  0
  6  7  1  0  0  0  0
  6  5  2  0  0  0  0
  7  9  1  0  0  0  0
  8 10  1  0  0  0  0
  8  7  2  0  0  0  0
  9 12  1  0  0  0  0
  9 11  2  0  0  0  0
 10 13  2  0  0  0  0
 11 14  1  0  0  0  0
 12 15  2  0  0  0  0
 13 12  1  0  0  0  0
 15 14  1  0  0  0  0
 16 13  1  6  0  0  0
 16 17  1  0  0  0  0
 18 21  2  0  0  0  0
 18 16  1  0  0  0  0
 19 22  1  0  0  0  0
 19 17  2  0  0  0  0
 20 18  1  0  0  0  0
 21 19  1  0  0  0  0
 22 26  1  0  0  0  0
 23 20  1  0  0  0  0
 23 24  2  0  0  0  0
 24 21  1  0  0  0  0
 25 27  1  0  0  0  0
 25 22  2  0  0  0  0
 27 28  2  0  0  0  0
 28 26  1  0  0  0  0
 28 37  1  0  0  0  0
 29  1  1  0  0  0  0
 30  2  1  0  0  0  0
 31  4  1  0  0  0  0
 33  8  1  0  0  0  0
 34 23  1  0  0  0  0
 35 24  1  0  0  0  0
 36 27  1  0  0  0  0
M  END
$$$$
scan_sander_basal_param/min_pdbs/min_pdb_C271_225.pdb
 OpenBabel10021702303D

 37 42  0  0  1  0  0  0  0  0999 V2000
   -0.5220    0.3580   -0.1330 C   0  0  0  0  0  0  0  0  0  0  0  0
    0.5230    0.4920   -1.0620 C   0  0  0  0  0  0  0  0  0  0  0  0
   -0.7700    1.2770    0.8190 N   0  0  0  0  0  0  0  0  0  0  0  0
    1.3480    1.6260   -0.9970 C   0  0  0  0  0  0  0  0  0  0  0  0
    0.0260    2.3640    0.8810 C   0  0  0  0  0  0  0  0  0  0  0  0
    1.1130    2.6020    0.0010 C   0  0  0  0  0  0  0  0  0  0  0  0
    1.9570    3.8340    0.0890 C   0  0  0  0  0  0  0  0  0  0  0  0
    2.3300    4.5410   -1.0750 C   0  0  0  0  0  0  0  0  0  0  0  0
    2.4380    4.3710    1.3050 C   0  0  0  0  0  0  0  0  0  0  0  0
    3.0850    5.6560   -1.0650 N   0  0  0  0  0  0  0  0  0  0  0  0
    2.2020    3.8220    2.5120 N   0  0  0  0  0  0  0  0  0  0  0  0
    3.2200    5.5210    1.3210 C   0  0  0  0  0  0  0  0  0  0  0  0
    3.5420    6.1710    0.0990 C   0  0  0  0  0  0  0  0  0  0  0  0
    2.9670    4.7920    3.5810 S   0  0  0  0  0  0  0  0  0  0  0  0
    3.6060    5.9000    2.5620 N   0  0  0  0  0  0  0  0  0  0  0  0
    4.3670    7.4040    0.0320 C   0  0  1  0  0  0  0  0  0  0  0  0
    5.1030    8.2610    1.4140 B   0  0  0  0  0  0  0  0  0  0  0  0
    4.6950    8.0810   -1.1340 C   0  0  0  0  0  0  0  0  0  0  0  0
    5.7940    9.4980    0.3650 C   0  0  0  0  0  0  0  0  0  0  0  0
    4.3200    7.7350   -2.8070 S   0  0  0  0  0  0  0  0  0  0  0  0
    5.4790    9.2100   -0.9330 C   0  0  0  0  0  0  0  0  0  0  0  0
    6.6610   10.5690    0.7580 C   0  0  0  0  0  0  0  0  0  0  0  0
    5.2830    9.1740   -3.2510 C   0  0  0  0  0  0  0  0  0  0  0  0
    5.8270    9.8390   -2.1610 C   0  0  0  0  0  0  0  0  0  0  0  0
    6.4050   11.7720    0.2790 C   0  0  0  0  0  0  0  0  0  0  0  0
    7.9270   10.4290    1.9520 S   0  0  0  0  0  0  0  0  0  0  0  0
    7.2820   12.6830    0.8240 C   0  0  0  0  0  0  0  0  0  0  0  0
    8.1700   12.1460    1.7310 C   0  0  0  0  0  0  0  0  0  0  0  0
   -1.1820   -0.5080   -0.1540 H   0  0  0  0  0  0  0  0  0  0  0  0
    0.6880   -0.2720   -1.8160 H   0  0  0  0  0  0  0  0  0  0  0  0
    2.1650    1.7470   -1.7040 H   0  0  0  0  0  0  0  0  0  0  0  0
   -0.2200    3.0860    1.6590 H   0  0  0  0  0  0  0  0  0  0  0  0
    1.9990    4.2020   -2.0570 H   0  0  0  0  0  0  0  0  0  0  0  0
    5.3800    9.4300   -4.2980 H   0  0  0  0  0  0  0  0  0  0  0  0
    6.4400   10.7310   -2.2310 H   0  0  0  0  0  0  0  0  0  0  0  0
    7.2170   13.7210    0.5220 H   0  0  0  0  0  0  0  0  0  0  0  0
    8.9450   12.6540    2.2880 H   0  0  0  0  0  0  0  0  0  0  0  0
  1  3  2  0  0  0  0
  2  4  2  0  0  0  0
  2  1  1  0  0  0  0
  3  5  1  0  0  0  0
  4  6  1  0  0  0  0
  5 32  1  0  0  0  0
  6  7  1  0  0  0  0
  6  5  2  0  0  0  0
  7  9  1  0  0  0  0
  8 10  1  0  0  0  0
  8  7  2  0  0  0  0
  9 12  1  0  0  0  0
  9 11  2  0  0  0  0
 10 13  2  0  0  0  0
 11 14  1  0  0  0  0
 12 15  2  0  0  0  0
 13 12  1  0  0  0  0
 15 14  1  0  0  0  0
 16 13  1  6  0  0  0
 16 17  1  0  0  0  0
 18 21  2  0  0  0  0
 18 16  1  0  0  0  0
 19 22  1  0  0  0  0
 19 17  2  0  0  0  0
 20 18  1  0  0  0  0
 21 19  1  0  0  0  0
 22 26  1  0  0  0  0
 23 20  1  0  0  0  0
 23 24  2  0  0  0  0
 24 21  1  0  0  0  0
 25 22  2  0  0  0  0
 25 27  1  0  0  0  0
 27 28  2  0  0  0  0
 28 26  1  0  0  0  0
 28 37  1  0  0  0  0
 29  1  1  0  0  0  0
 30  2  1  0  0  0  0
 31  4  1  0  0  0  0
 33  8  1  0  0  0  0
 34 23  1  0  0  0  0
 35 24  1  0  0  0  0
 36 27  1  0  0  0  0
M  END
$$$$
scan_sander_basal_param/min_pdbs/min_pdb_C271_240.pdb
 OpenBabel10021702303D

 37 42  0  0  1  0  0  0  0  0999 V2000
   -0.5290    0.3640   -0.1260 C   0  0  0  0  0  0  0  0  0  0  0  0
    0.5200    0.4930   -1.0500 C   0  0  0  0  0  0  0  0  0  0  0  0
   -0.7800    1.2870    0.8220 N   0  0  0  0  0  0  0  0  0  0  0  0
    1.3460    1.6260   -0.9860 C   0  0  0  0  0  0  0  0  0  0  0  0
    0.0180    2.3740    0.8830 C   0  0  0  0  0  0  0  0  0  0  0  0
    1.1090    2.6060    0.0070 C   0  0  0  0  0  0  0  0  0  0  0  0
    1.9550    3.8370    0.0940 C   0  0  0  0  0  0  0  0  0  0  0  0
    2.3340    4.5390   -1.0710 C   0  0  0  0  0  0  0  0  0  0  0  0
    2.4300    4.3780    1.3100 C   0  0  0  0  0  0  0  0  0  0  0  0
    3.0910    5.6530   -1.0610 N   0  0  0  0  0  0  0  0  0  0  0  0
    2.1880    3.8340    2.5190 N   0  0  0  0  0  0  0  0  0  0  0  0
    3.2150    5.5270    1.3250 C   0  0  0  0  0  0  0  0  0  0  0  0
    3.5440    6.1710    0.1030 C   0  0  0  0  0  0  0  0  0  0  0  0
    2.9490    4.8070    3.5880 S   0  0  0  0  0  0  0  0  0  0  0  0
    3.5960    5.9100    2.5670 N   0  0  0  0  0  0  0  0  0  0  0  0
    4.3720    7.4020    0.0350 C   0  0  1  0  0  0  0  0  0  0  0  0
    5.1040    8.2640    1.4170 B   0  0  0  0  0  0  0  0  0  0  0  0
    4.7050    8.0720   -1.1340 C   0  0  0  0  0  0  0  0  0  0  0  0
    5.8090    9.4850    0.3600 C   0  0  0  0  0  0  0  0  0  0  0  0
    4.3270    7.7310   -2.8080 S   0  0  0  0  0  0  0  0  0  0  0  0
    5.4930    9.1980   -0.9340 C   0  0  0  0  0  0  0  0  0  0  0  0
    6.6750   10.5610    0.7300 C   0  0  0  0  0  0  0  0  0  0  0  0
    5.2900    9.1730   -3.2490 C   0  0  0  0  0  0  0  0  0  0  0  0
    5.8370    9.8340   -2.1580 C   0  0  0  0  0  0  0  0  0  0  0  0
    6.2540   11.7850    0.4770 C   0  0  0  0  0  0  0  0  0  0  0  0
    8.1710   10.3810    1.6100 S   0  0  0  0  0  0  0  0  0  0  0  0
    7.1710   12.6940    0.9550 C   0  0  0  0  0  0  0  0  0  0  0  0
    8.2590   12.1280    1.5830 C   0  0  0  0  0  0  0  0  0  0  0  0
   -1.1910   -0.5010   -0.1470 H   0  0  0  0  0  0  0  0  0  0  0  0
    0.6870   -0.2740   -1.8000 H   0  0  0  0  0  0  0  0  0  0  0  0
    2.1670    1.7430   -1.6890 H   0  0  0  0  0  0  0  0  0  0  0  0
   -0.2320    3.0980    1.6570 H   0  0  0  0  0  0  0  0  0  0  0  0
    2.0070    4.1970   -2.0530 H   0  0  0  0  0  0  0  0  0  0  0  0
    5.3820    9.4340   -4.2950 H   0  0  0  0  0  0  0  0  0  0  0  0
    6.4470   10.7290   -2.2200 H   0  0  0  0  0  0  0  0  0  0  0  0
    6.9850   13.7520    0.8170 H   0  0  0  0  0  0  0  0  0  0  0  0
    9.1030   12.6270    2.0380 H   0  0  0  0  0  0  0  0  0  0  0  0
  1  3  2  0  0  0  0
  2  4  2  0  0  0  0
  2  1  1  0  0  0  0
  3  5  1  0  0  0  0
  4  6  1  0  0  0  0
  5 32  1  0  0  0  0
  6  7  1  0  0  0  0
  6  5  2  0  0  0  0
  7  9  1  0  0  0  0
  8 10  1  0  0  0  0
  8  7  2  0  0  0  0
  9 12  1  0  0  0  0
  9 11  2  0  0  0  0
 10 13  2  0  0  0  0
 11 14  1  0  0  0  0
 12 15  2  0  0  0  0
 13 12  1  0  0  0  0
 15 14  1  0  0  0  0
 16 13  1  6  0  0  0
 16 17  1  0  0  0  0
 18 21  2  0  0  0  0
 18 16  1  0  0  0  0
 19 22  1  0  0  0  0
 19 17  2  0  0  0  0
 20 18  1  0  0  0  0
 21 19  1  0  0  0  0
 22 26  1  0  0  0  0
 23 20  1  0  0  0  0
 23 24  2  0  0  0  0
 24 21  1  0  0  0  0
 25 22  2  0  0  0  0
 25 27  1  0  0  0  0
 27 28  2  0  0  0  0
 28 26  1  0  0  0  0
 28 37  1  0  0  0  0
 29  1  1  0  0  0  0
 30  2  1  0  0  0  0
 31  4  1  0  0  0  0
 33  8  1  0  0  0  0
 34 23  1  0  0  0  0
 35 24  1  0  0  0  0
 36 27  1  0  0  0  0
M  END
$$$$
scan_sander_basal_param/min_pdbs/min_pdb_C271_255.pdb
 OpenBabel10021702303D

 37 42  0  0  1  0  0  0  0  0999 V2000
   -0.5420    0.3750   -0.1100 C   0  0  0  0  0  0  0  0  0  0  0  0
    0.5060    0.4980   -1.0360 C   0  0  0  0  0  0  0  0  0  0  0  0
   -0.7880    1.3010    0.8360 N   0  0  0  0  0  0  0  0  0  0  0  0
    1.3370    1.6280   -0.9750 C   0  0  0  0  0  0  0  0  0  0  0  0
    0.0140    2.3840    0.8950 C   0  0  0  0  0  0  0  0  0  0  0  0
    1.1040    2.6110    0.0170 C   0  0  0  0  0  0  0  0  0  0  0  0
    1.9550    3.8390    0.1000 C   0  0  0  0  0  0  0  0  0  0  0  0
    2.3350    4.5370   -1.0670 C   0  0  0  0  0  0  0  0  0  0  0  0
    2.4340    4.3810    1.3150 C   0  0  0  0  0  0  0  0  0  0  0  0
    3.0960    5.6490   -1.0600 N   0  0  0  0  0  0  0  0  0  0  0  0
    2.1920    3.8390    2.5250 N   0  0  0  0  0  0  0  0  0  0  0  0
    3.2230    5.5260    1.3270 C   0  0  0  0  0  0  0  0  0  0  0  0
    3.5510    6.1680    0.1030 C   0  0  0  0  0  0  0  0  0  0  0  0
    2.9580    4.8120    3.5910 S   0  0  0  0  0  0  0  0  0  0  0  0
    3.6070    5.9100    2.5670 N   0  0  0  0  0  0  0  0  0  0  0  0
    4.3830    7.3960    0.0310 C   0  0  1  0  0  0  0  0  0  0  0  0
    5.1200    8.2590    1.4110 B   0  0  0  0  0  0  0  0  0  0  0  0
    4.7150    8.0620   -1.1400 C   0  0  0  0  0  0  0  0  0  0  0  0
    5.8330    9.4700    0.3480 C   0  0  0  0  0  0  0  0  0  0  0  0
    4.3240    7.7290   -2.8120 S   0  0  0  0  0  0  0  0  0  0  0  0
    5.5080    9.1850   -0.9440 C   0  0  0  0  0  0  0  0  0  0  0  0
    6.6870   10.5570    0.7050 C   0  0  0  0  0  0  0  0  0  0  0  0
    5.2850    9.1720   -3.2550 C   0  0  0  0  0  0  0  0  0  0  0  0
    5.8420    9.8290   -2.1660 C   0  0  0  0  0  0  0  0  0  0  0  0
    6.1480   11.7600    0.7100 C   0  0  0  0  0  0  0  0  0  0  0  0
    8.3460   10.4000    1.2210 S   0  0  0  0  0  0  0  0  0  0  0  0
    7.0890   12.6790    1.1170 C   0  0  0  0  0  0  0  0  0  0  0  0
    8.3180   12.1370    1.4260 C   0  0  0  0  0  0  0  0  0  0  0  0
   -1.2070   -0.4880   -0.1280 H   0  0  0  0  0  0  0  0  0  0  0  0
    0.6700   -0.2710   -1.7850 H   0  0  0  0  0  0  0  0  0  0  0  0
    2.1570    1.7400   -1.6790 H   0  0  0  0  0  0  0  0  0  0  0  0
   -0.2320    3.1110    1.6680 H   0  0  0  0  0  0  0  0  0  0  0  0
    2.0060    4.1950   -2.0470 H   0  0  0  0  0  0  0  0  0  0  0  0
    5.3670    9.4380   -4.3000 H   0  0  0  0  0  0  0  0  0  0  0  0
    6.4500   10.7250   -2.2280 H   0  0  0  0  0  0  0  0  0  0  0  0
    6.8140   13.7250    1.1680 H   0  0  0  0  0  0  0  0  0  0  0  0
    9.2070   12.6490    1.7670 H   0  0  0  0  0  0  0  0  0  0  0  0
  1  3  2  0  0  0  0
  2  4  2  0  0  0  0
  2  1  1  0  0  0  0
  3  5  1  0  0  0  0
  4  6  1  0  0  0  0
  5 32  1  0  0  0  0
  6  7  1  0  0  0  0
  6  5  2  0  0  0  0
  7  9  1  0  0  0  0
  8 10  1  0  0  0  0
  8  7  2  0  0  0  0
  9 12  1  0  0  0  0
  9 11  2  0  0  0  0
 10 13  2  0  0  0  0
 11 14  1  0  0  0  0
 12 15  2  0  0  0  0
 13 12  1  0  0  0  0
 15 14  1  0  0  0  0
 16 13  1  6  0  0  0
 16 17  1  0  0  0  0
 18 21  2  0  0  0  0
 18 16  1  0  0  0  0
 19 22  1  0  0  0  0
 19 17  2  0  0  0  0
 20 18  1  0  0  0  0
 21 19  1  0  0  0  0
 22 25  2  0  0  0  0
 22 26  1  0  0  0  0
 23 20  1  0  0  0  0
 23 24  2  0  0  0  0
 24 21  1  0  0  0  0
 25 27  1  0  0  0  0
 26 28  1  0  0  0  0
 27 36  1  0  0  0  0
 27 28  2  0  0  0  0
 28 37  1  0  0  0  0
 29  1  1  0  0  0  0
 30  2  1  0  0  0  0
 31  4  1  0  0  0  0
 33  8  1  0  0  0  0
 34 23  1  0  0  0  0
 35 24  1  0  0  0  0
M  END
$$$$
scan_sander_basal_param/min_pdbs/min_pdb_C271_270.pdb
 OpenBabel10021702303D

 37 42  0  0  1  0  0  0  0  0999 V2000
   -0.5430    0.3780   -0.0880 C   0  0  0  0  0  0  0  0  0  0  0  0
    0.5040    0.4980   -1.0160 C   0  0  0  0  0  0  0  0  0  0  0  0
   -0.7880    1.3060    0.8550 N   0  0  0  0  0  0  0  0  0  0  0  0
    1.3350    1.6290   -0.9600 C   0  0  0  0  0  0  0  0  0  0  0  0
    0.0130    2.3910    0.9090 C   0  0  0  0  0  0  0  0  0  0  0  0
    1.1020    2.6140    0.0290 C   0  0  0  0  0  0  0  0  0  0  0  0
    1.9530    3.8440    0.1070 C   0  0  0  0  0  0  0  0  0  0  0  0
    2.3320    4.5380   -1.0630 C   0  0  0  0  0  0  0  0  0  0  0  0
    2.4330    4.3900    1.3190 C   0  0  0  0  0  0  0  0  0  0  0  0
    3.0930    5.6490   -1.0610 N   0  0  0  0  0  0  0  0  0  0  0  0
    2.1920    3.8530    2.5320 N   0  0  0  0  0  0  0  0  0  0  0  0
    3.2220    5.5350    1.3260 C   0  0  0  0  0  0  0  0  0  0  0  0
    3.5510    6.1710    0.0990 C   0  0  0  0  0  0  0  0  0  0  0  0
    2.9590    4.8290    3.5930 S   0  0  0  0  0  0  0  0  0  0  0  0
    3.6080    5.9230    2.5640 N   0  0  0  0  0  0  0  0  0  0  0  0
    4.3840    7.3970    0.0220 C   0  0  1  0  0  0  0  0  0  0  0  0
    5.1240    8.2650    1.3980 B   0  0  0  0  0  0  0  0  0  0  0  0
    4.7170    8.0590   -1.1520 C   0  0  0  0  0  0  0  0  0  0  0  0
    5.8460    9.4630    0.3270 C   0  0  0  0  0  0  0  0  0  0  0  0
    4.3160    7.7250   -2.8220 S   0  0  0  0  0  0  0  0  0  0  0  0
    5.5140    9.1790   -0.9620 C   0  0  0  0  0  0  0  0  0  0  0  0
    6.6950   10.5560    0.6770 C   0  0  0  0  0  0  0  0  0  0  0  0
    5.2780    9.1660   -3.2710 C   0  0  0  0  0  0  0  0  0  0  0  0
    5.8420    9.8220   -2.1860 C   0  0  0  0  0  0  0  0  0  0  0  0
    6.1020   11.6990    0.9570 C   0  0  0  0  0  0  0  0  0  0  0  0
    8.4310   10.4750    0.8170 S   0  0  0  0  0  0  0  0  0  0  0  0
    7.0550   12.6330    1.2980 C   0  0  0  0  0  0  0  0  0  0  0  0
    8.3500   12.1610    1.2750 C   0  0  0  0  0  0  0  0  0  0  0  0
   -1.2070   -0.4860   -0.1020 H   0  0  0  0  0  0  0  0  0  0  0  0
    0.6680   -0.2740   -1.7620 H   0  0  0  0  0  0  0  0  0  0  0  0
    2.1540    1.7390   -1.6650 H   0  0  0  0  0  0  0  0  0  0  0  0
   -0.2320    3.1200    1.6790 H   0  0  0  0  0  0  0  0  0  0  0  0
    2.0010    4.1920   -2.0420 H   0  0  0  0  0  0  0  0  0  0  0  0
    5.3540    9.4310   -4.3170 H   0  0  0  0  0  0  0  0  0  0  0  0
    6.4520   10.7160   -2.2530 H   0  0  0  0  0  0  0  0  0  0  0  0
    6.7400   13.6380    1.5530 H   0  0  0  0  0  0  0  0  0  0  0  0
    9.2610   12.6980    1.5020 H   0  0  0  0  0  0  0  0  0  0  0  0
  1  3  2  0  0  0  0
  2  4  2  0  0  0  0
  2  1  1  0  0  0  0
  3  5  1  0  0  0  0
  4  6  1  0  0  0  0
  5 32  1  0  0  0  0
  6  7  1  0  0  0  0
  6  5  2  0  0  0  0
  7  9  1  0  0  0  0
  8 10  1  0  0  0  0
  8  7  2  0  0  0  0
  9 12  1  0  0  0  0
  9 11  2  0  0  0  0
 10 13  2  0  0  0  0
 11 14  1  0  0  0  0
 12 15  2  0  0  0  0
 13 12  1  0  0  0  0
 15 14  1  0  0  0  0
 16 13  1  6  0  0  0
 16 17  1  0  0  0  0
 18 21  2  0  0  0  0
 18 16  1  0  0  0  0
 19 22  1  0  0  0  0
 19 17  2  0  0  0  0
 20 18  1  0  0  0  0
 21 19  1  0  0  0  0
 22 26  1  0  0  0  0
 22 25  2  0  0  0  0
 23 20  1  0  0  0  0
 23 24  2  0  0  0  0
 24 21  1  0  0  0  0
 25 27  1  0  0  0  0
 26 28  1  0  0  0  0
 27 36  1  0  0  0  0
 28 27  2  0  0  0  0
 28 37  1  0  0  0  0
 29  1  1  0  0  0  0
 30  2  1  0  0  0  0
 31  4  1  0  0  0  0
 33  8  1  0  0  0  0
 34 23  1  0  0  0  0
 35 24  1  0  0  0  0
M  END
$$$$
scan_sander_basal_param/min_pdbs/min_pdb_C271_285.pdb
 OpenBabel10021702303D

 37 42  0  0  1  0  0  0  0  0999 V2000
   -0.5470    0.3830   -0.0650 C   0  0  0  0  0  0  0  0  0  0  0  0
    0.5050    0.4940   -0.9890 C   0  0  0  0  0  0  0  0  0  0  0  0
   -0.7950    1.3210    0.8690 N   0  0  0  0  0  0  0  0  0  0  0  0
    1.3370    1.6240   -0.9390 C   0  0  0  0  0  0  0  0  0  0  0  0
    0.0070    2.4040    0.9170 C   0  0  0  0  0  0  0  0  0  0  0  0
    1.1020    2.6190    0.0400 C   0  0  0  0  0  0  0  0  0  0  0  0
    1.9530    3.8470    0.1120 C   0  0  0  0  0  0  0  0  0  0  0  0
    2.3390    4.5300   -1.0620 C   0  0  0  0  0  0  0  0  0  0  0  0
    2.4290    4.4030    1.3210 C   0  0  0  0  0  0  0  0  0  0  0  0
    3.1010    5.6410   -1.0670 N   0  0  0  0  0  0  0  0  0  0  0  0
    2.1820    3.8770    2.5370 N   0  0  0  0  0  0  0  0  0  0  0  0
    3.2190    5.5470    1.3220 C   0  0  0  0  0  0  0  0  0  0  0  0
    3.5540    6.1730    0.0910 C   0  0  0  0  0  0  0  0  0  0  0  0
    2.9450    4.8610    3.5940 S   0  0  0  0  0  0  0  0  0  0  0  0
    3.6000    5.9460    2.5580 N   0  0  0  0  0  0  0  0  0  0  0  0
    4.3890    7.3980    0.0070 C   0  0  1  0  0  0  0  0  0  0  0  0
    5.1230    8.2770    1.3800 B   0  0  0  0  0  0  0  0  0  0  0  0
    4.7270    8.0490   -1.1710 C   0  0  0  0  0  0  0  0  0  0  0  0
    5.8520    9.4640    0.3020 C   0  0  0  0  0  0  0  0  0  0  0  0
    4.3300    7.7030   -2.8380 S   0  0  0  0  0  0  0  0  0  0  0  0
    5.5240    9.1710   -0.9860 C   0  0  0  0  0  0  0  0  0  0  0  0
    6.6920   10.5650    0.6480 C   0  0  0  0  0  0  0  0  0  0  0  0
    5.2900    9.1420   -3.2960 C   0  0  0  0  0  0  0  0  0  0  0  0
    5.8520    9.8060   -2.2140 C   0  0  0  0  0  0  0  0  0  0  0  0
    6.1020   11.6070    1.1980 C   0  0  0  0  0  0  0  0  0  0  0  0
    8.4230   10.6160    0.4390 S   0  0  0  0  0  0  0  0  0  0  0  0
    7.0480   12.5660    1.4830 C   0  0  0  0  0  0  0  0  0  0  0  0
    8.3370   12.2140    1.1470 C   0  0  0  0  0  0  0  0  0  0  0  0
   -1.2120   -0.4790   -0.0750 H   0  0  0  0  0  0  0  0  0  0  0  0
    0.6700   -0.2840   -1.7270 H   0  0  0  0  0  0  0  0  0  0  0  0
    2.1590    1.7260   -1.6410 H   0  0  0  0  0  0  0  0  0  0  0  0
   -0.2400    3.1410    1.6800 H   0  0  0  0  0  0  0  0  0  0  0  0
    2.0120    4.1760   -2.0400 H   0  0  0  0  0  0  0  0  0  0  0  0
    5.3670    9.4010   -4.3440 H   0  0  0  0  0  0  0  0  0  0  0  0
    6.4600   10.7020   -2.2880 H   0  0  0  0  0  0  0  0  0  0  0  0
    6.7320   13.4980    1.9370 H   0  0  0  0  0  0  0  0  0  0  0  0
    9.2420   12.7920    1.2730 H   0  0  0  0  0  0  0  0  0  0  0  0
  1  3  2  0  0  0  0
  2  4  2  0  0  0  0
  2  1  1  0  0  0  0
  3  5  1  0  0  0  0
  4  6  1  0  0  0  0
  5 32  1  0  0  0  0
  6  7  1  0  0  0  0
  6  5  2  0  0  0  0
  7  9  1  0  0  0  0
  8  7  2  0  0  0  0
  9 12  1  0  0  0  0
  9 11  2  0  0  0  0
 10  8  1  0  0  0  0
 10 13  2  0  0  0  0
 11 14  1  0  0  0  0
 12 15  2  0  0  0  0
 13 12  1  0  0  0  0
 15 14  1  0  0  0  0
 16 13  1  6  0  0  0
 16 17  1  0  0  0  0
 18 21  2  0  0  0  0
 18 16  1  0  0  0  0
 19 22  1  0  0  0  0
 19 17  2  0  0  0  0
 20 18  1  0  0  0  0
 21 19  1  0  0  0  0
 22 25  2  0  0  0  0
 23 20  1  0  0  0  0
 23 24  2  0  0  0  0
 24 21  1  0  0  0  0
 25 27  1  0  0  0  0
 26 22  1  0  0  0  0
 26 28  1  0  0  0  0
 27 36  1  0  0  0  0
 28 37  1  0  0  0  0
 28 27  2  0  0  0  0
 29  1  1  0  0  0  0
 30  2  1  0  0  0  0
 31  4  1  0  0  0  0
 33  8  1  0  0  0  0
 34 23  1  0  0  0  0
 35 24  1  0  0  0  0
M  END
$$$$
scan_sander_basal_param/min_pdbs/min_pdb_C271_300.pdb
 OpenBabel10021702303D

 37 42  0  0  1  0  0  0  0  0999 V2000
   -0.5350    0.3800   -0.0390 C   0  0  0  0  0  0  0  0  0  0  0  0
    0.5250    0.4810   -0.9540 C   0  0  0  0  0  0  0  0  0  0  0  0
   -0.7940    1.3290    0.8800 N   0  0  0  0  0  0  0  0  0  0  0  0
    1.3530    1.6140   -0.9120 C   0  0  0  0  0  0  0  0  0  0  0  0
    0.0050    2.4150    0.9210 C   0  0  0  0  0  0  0  0  0  0  0  0
    1.1060    2.6210    0.0510 C   0  0  0  0  0  0  0  0  0  0  0  0
    1.9540    3.8530    0.1140 C   0  0  0  0  0  0  0  0  0  0  0  0
    2.3480    4.5220   -1.0650 C   0  0  0  0  0  0  0  0  0  0  0  0
    2.4160    4.4260    1.3200 C   0  0  0  0  0  0  0  0  0  0  0  0
    3.1070    5.6340   -1.0780 N   0  0  0  0  0  0  0  0  0  0  0  0
    2.1590    3.9160    2.5410 N   0  0  0  0  0  0  0  0  0  0  0  0
    3.2030    5.5730    1.3120 C   0  0  0  0  0  0  0  0  0  0  0  0
    3.5470    6.1830    0.0770 C   0  0  0  0  0  0  0  0  0  0  0  0
    2.9100    4.9170    3.5910 S   0  0  0  0  0  0  0  0  0  0  0  0
    3.5710    5.9900    2.5470 N   0  0  0  0  0  0  0  0  0  0  0  0
    4.3790    7.4100   -0.0160 C   0  0  1  0  0  0  0  0  0  0  0  0
    5.0980    8.3090    1.3510 B   0  0  0  0  0  0  0  0  0  0  0  0
    4.7270    8.0460   -1.1990 C   0  0  0  0  0  0  0  0  0  0  0  0
    5.8320    9.4870    0.2650 C   0  0  0  0  0  0  0  0  0  0  0  0
    4.3430    7.6770   -2.8650 S   0  0  0  0  0  0  0  0  0  0  0  0
    5.5190    9.1740   -1.0230 C   0  0  0  0  0  0  0  0  0  0  0  0
    6.6740   10.5870    0.6130 C   0  0  0  0  0  0  0  0  0  0  0  0
    5.2980    9.1150   -3.3340 C   0  0  0  0  0  0  0  0  0  0  0  0
    5.8490    9.7960   -2.2580 C   0  0  0  0  0  0  0  0  0  0  0  0
    6.1560   11.4910    1.4200 C   0  0  0  0  0  0  0  0  0  0  0  0
    8.3330   10.7930    0.1100 S   0  0  0  0  0  0  0  0  0  0  0  0
    7.0960   12.4640    1.6770 C   0  0  0  0  0  0  0  0  0  0  0  0
    8.3120   12.2600    1.0630 C   0  0  0  0  0  0  0  0  0  0  0  0
   -1.1970   -0.4850   -0.0430 H   0  0  0  0  0  0  0  0  0  0  0  0
    0.7000   -0.3070   -1.6810 H   0  0  0  0  0  0  0  0  0  0  0  0
    2.1820    1.7100   -1.6080 H   0  0  0  0  0  0  0  0  0  0  0  0
   -0.2520    3.1610    1.6720 H   0  0  0  0  0  0  0  0  0  0  0  0
    2.0310    4.1530   -2.0410 H   0  0  0  0  0  0  0  0  0  0  0  0
    5.3790    9.3610   -4.3850 H   0  0  0  0  0  0  0  0  0  0  0  0
    6.4490   10.6950   -2.3420 H   0  0  0  0  0  0  0  0  0  0  0  0
    6.8310   13.2930    2.3220 H   0  0  0  0  0  0  0  0  0  0  0  0
    9.1980   12.8780    1.1120 H   0  0  0  0  0  0  0  0  0  0  0  0
  1  3  2  0  0  0  0
  2  4  2  0  0  0  0
  2  1  1  0  0  0  0
  3  5  1  0  0  0  0
  4  6  1  0  0  0  0
  5 32  1  0  0  0  0
  6  7  1  0  0  0  0
  6  5  2  0  0  0  0
  7  9  1  0  0  0  0
  8  7  2  0  0  0  0
  9 11  2  0  0  0  0
 10  8  1  0  0  0  0
 10 13  2  0  0  0  0
 11 14  1  0  0  0  0
 12  9  1  0  0  0  0
 12 15  2  0  0  0  0
 13 12  1  0  0  0  0
 15 14  1  0  0  0  0
 16 13  1  6  0  0  0
 16 17  1  0  0  0  0
 18 21  2  0  0  0  0
 18 16  1  0  0  0  0
 19 22  1  0  0  0  0
 19 17  2  0  0  0  0
 20 18  1  0  0  0  0
 21 19  1  0  0  0  0
 22 25  2  0  0  0  0
 23 20  1  0  0  0  0
 23 24  2  0  0  0  0
 24 21  1  0  0  0  0
 25 27  1  0  0  0  0
 26 22  1  0  0  0  0
 26 28  1  0  0  0  0
 27 36  1  0  0  0  0
 28 37  1  0  0  0  0
 28 27  2  0  0  0  0
 29  1  1  0  0  0  0
 30  2  1  0  0  0  0
 31  4  1  0  0  0  0
 33  8  1  0  0  0  0
 34 23  1  0  0  0  0
 35 24  1  0  0  0  0
M  END
$$$$
scan_sander_basal_param/min_pdbs/min_pdb_C271_315.pdb
 OpenBabel10021702303D

 37 42  0  0  1  0  0  0  0  0999 V2000
   -0.5170    0.3740   -0.0110 C   0  0  0  0  0  0  0  0  0  0  0  0
    0.5560    0.4620   -0.9120 C   0  0  0  0  0  0  0  0  0  0  0  0
   -0.7950    1.3380    0.8860 N   0  0  0  0  0  0  0  0  0  0  0  0
    1.3790    1.6000   -0.8780 C   0  0  0  0  0  0  0  0  0  0  0  0
   -0.0010    2.4290    0.9190 C   0  0  0  0  0  0  0  0  0  0  0  0
    1.1130    2.6240    0.0620 C   0  0  0  0  0  0  0  0  0  0  0  0
    1.9540    3.8600    0.1140 C   0  0  0  0  0  0  0  0  0  0  0  0
    2.3630    4.5090   -1.0710 C   0  0  0  0  0  0  0  0  0  0  0  0
    2.3960    4.4590    1.3160 C   0  0  0  0  0  0  0  0  0  0  0  0
    3.1170    5.6240   -1.0930 N   0  0  0  0  0  0  0  0  0  0  0  0
    2.1220    3.9700    2.5420 N   0  0  0  0  0  0  0  0  0  0  0  0
    3.1770    5.6090    1.2990 C   0  0  0  0  0  0  0  0  0  0  0  0
    3.5380    6.1970    0.0570 C   0  0  0  0  0  0  0  0  0  0  0  0
    2.8530    4.9940    3.5850 S   0  0  0  0  0  0  0  0  0  0  0  0
    3.5240    6.0500    2.5310 N   0  0  0  0  0  0  0  0  0  0  0  0
    4.3650    7.4260   -0.0460 C   0  0  1  0  0  0  0  0  0  0  0  0
    5.0580    8.3520    1.3140 B   0  0  0  0  0  0  0  0  0  0  0  0
    4.7290    8.0430   -1.2340 C   0  0  0  0  0  0  0  0  0  0  0  0
    5.8050    9.5180    0.2220 C   0  0  0  0  0  0  0  0  0  0  0  0
    4.3650    7.6410   -2.8970 S   0  0  0  0  0  0  0  0  0  0  0  0
    5.5140    9.1790   -1.0670 C   0  0  0  0  0  0  0  0  0  0  0  0
    6.6490   10.6160    0.5820 C   0  0  0  0  0  0  0  0  0  0  0  0
    5.3090    9.0800   -3.3810 C   0  0  0  0  0  0  0  0  0  0  0  0
    5.8450    9.7830   -2.3120 C   0  0  0  0  0  0  0  0  0  0  0  0
    6.2470   11.3460    1.6040 C   0  0  0  0  0  0  0  0  0  0  0  0
    8.1870   11.0150   -0.1450 S   0  0  0  0  0  0  0  0  0  0  0  0
    7.1740   12.3340    1.8560 C   0  0  0  0  0  0  0  0  0  0  0  0
    8.2700   12.3140    1.0220 C   0  0  0  0  0  0  0  0  0  0  0  0
   -1.1760   -0.4940   -0.0090 H   0  0  0  0  0  0  0  0  0  0  0  0
    0.7450   -0.3380   -1.6210 H   0  0  0  0  0  0  0  0  0  0  0  0
    2.2180    1.6860   -1.5630 H   0  0  0  0  0  0  0  0  0  0  0  0
   -0.2720    3.1880    1.6510 H   0  0  0  0  0  0  0  0  0  0  0  0
    2.0630    4.1210   -2.0440 H   0  0  0  0  0  0  0  0  0  0  0  0
    5.3940    9.3100   -4.4350 H   0  0  0  0  0  0  0  0  0  0  0  0
    6.4300   10.6900   -2.4130 H   0  0  0  0  0  0  0  0  0  0  0  0
    6.9900   13.0330    2.6630 H   0  0  0  0  0  0  0  0  0  0  0  0
    9.1230   12.9790    1.0230 H   0  0  0  0  0  0  0  0  0  0  0  0
  1 29  1  0  0  0  0
  1  3  2  0  0  0  0
  2  4  2  0  0  0  0
  2  1  1  0  0  0  0
  3  5  1  0  0  0  0
  4  6  1  0  0  0  0
  5 32  1  0  0  0  0
  6  7  1  0  0  0  0
  6  5  2  0  0  0  0
  7  9  1  0  0  0  0
  8  7  2  0  0  0  0
  9 11  2  0  0  0  0
 10  8  1  0  0  0  0
 10 13  2  0  0  0  0
 11 14  1  0  0  0  0
 12  9  1  0  0  0  0
 12 15  2  0  0  0  0
 13 12  1  0  0  0  0
 15 14  1  0  0  0  0
 16 13  1  6  0  0  0
 16 17  1  0  0  0  0
 18 21  2  0  0  0  0
 18 16  1  0  0  0  0
 19 22  1  0  0  0  0
 19 17  2  0  0  0  0
 20 18  1  0  0  0  0
 21 19  1  0  0  0  0
 22 25  2  0  0  0  0
 23 20  1  0  0  0  0
 23 24  2  0  0  0  0
 24 21  1  0  0  0  0
 25 27  1  0  0  0  0
 26 22  1  0  0  0  0
 26 28  1  0  0  0  0
 27 36  1  0  0  0  0
 28 37  1  0  0  0  0
 28 27  2  0  0  0  0
 30  2  1  0  0  0  0
 31  4  1  0  0  0  0
 33  8  1  0  0  0  0
 34 23  1  0  0  0  0
 35 24  1  0  0  0  0
M  END
$$$$
scan_sander_basal_param/min_pdbs/min_pdb_C271_330.pdb
 OpenBabel10021702303D

 37 42  0  0  1  0  0  0  0  0999 V2000
   -0.5010    0.3690    0.0160 C   0  0  0  0  0  0  0  0  0  0  0  0
    0.5810    0.4490   -0.8750 C   0  0  0  0  0  0  0  0  0  0  0  0
   -0.7910    1.3460    0.8950 N   0  0  0  0  0  0  0  0  0  0  0  0
    1.3990    1.5900   -0.8510 C   0  0  0  0  0  0  0  0  0  0  0  0
   -0.0020    2.4400    0.9200 C   0  0  0  0  0  0  0  0  0  0  0  0
    1.1190    2.6260    0.0710 C   0  0  0  0  0  0  0  0  0  0  0  0
    1.9550    3.8670    0.1130 C   0  0  0  0  0  0  0  0  0  0  0  0
    2.3740    4.4990   -1.0780 C   0  0  0  0  0  0  0  0  0  0  0  0
    2.3830    4.4850    1.3100 C   0  0  0  0  0  0  0  0  0  0  0  0
    3.1240    5.6170   -1.1090 N   0  0  0  0  0  0  0  0  0  0  0  0
    2.0990    4.0140    2.5410 N   0  0  0  0  0  0  0  0  0  0  0  0
    3.1600    5.6380    1.2830 C   0  0  0  0  0  0  0  0  0  0  0  0
    3.5310    6.2090    0.0370 C   0  0  0  0  0  0  0  0  0  0  0  0
    2.8150    5.0560    3.5750 S   0  0  0  0  0  0  0  0  0  0  0  0
    3.4920    6.0990    2.5120 N   0  0  0  0  0  0  0  0  0  0  0  0
    4.3550    7.4400   -0.0760 C   0  0  1  0  0  0  0  0  0  0  0  0
    5.0290    8.3870    1.2760 B   0  0  0  0  0  0  0  0  0  0  0  0
    4.7300    8.0430   -1.2680 C   0  0  0  0  0  0  0  0  0  0  0  0
    5.7880    9.5440    0.1800 C   0  0  0  0  0  0  0  0  0  0  0  0
    4.3740    7.6130   -2.9250 S   0  0  0  0  0  0  0  0  0  0  0  0
    5.5100    9.1860   -1.1100 C   0  0  0  0  0  0  0  0  0  0  0  0
    6.6290   10.6420    0.5610 C   0  0  0  0  0  0  0  0  0  0  0  0
    5.3050    9.0530   -3.4270 C   0  0  0  0  0  0  0  0  0  0  0  0
    5.8330    9.7750   -2.3660 C   0  0  0  0  0  0  0  0  0  0  0  0
    6.3770   11.1710    1.7440 C   0  0  0  0  0  0  0  0  0  0  0  0
    7.9930   11.2840   -0.3250 S   0  0  0  0  0  0  0  0  0  0  0  0
    7.2750   12.1820    2.0060 C   0  0  0  0  0  0  0  0  0  0  0  0
    8.2070   12.3870    1.0130 C   0  0  0  0  0  0  0  0  0  0  0  0
   -1.1570   -0.5010    0.0250 H   0  0  0  0  0  0  0  0  0  0  0  0
    0.7800   -0.3620   -1.5700 H   0  0  0  0  0  0  0  0  0  0  0  0
    2.2440    1.6690   -1.5280 H   0  0  0  0  0  0  0  0  0  0  0  0
   -0.2830    3.2090    1.6380 H   0  0  0  0  0  0  0  0  0  0  0  0
    2.0850    4.0950   -2.0480 H   0  0  0  0  0  0  0  0  0  0  0  0
    5.3870    9.2710   -4.4830 H   0  0  0  0  0  0  0  0  0  0  0  0
    6.4030   10.6870   -2.4890 H   0  0  0  0  0  0  0  0  0  0  0  0
    7.1960   12.7270    2.9390 H   0  0  0  0  0  0  0  0  0  0  0  0
    9.0080   13.1130    0.9870 H   0  0  0  0  0  0  0  0  0  0  0  0
  1 29  1  0  0  0  0
  1  3  2  0  0  0  0
  2  4  2  0  0  0  0
  2  1  1  0  0  0  0
  3  5  1  0  0  0  0
  4  6  1  0  0  0  0
  5 32  1  0  0  0  0
  6  7  1  0  0  0  0
  6  5  2  0  0  0  0
  7  9  1  0  0  0  0
  8  7  2  0  0  0  0
  9 11  2  0  0  0  0
 10  8  1  0  0  0  0
 10 13  2  0  0  0  0
 11 14  1  0  0  0  0
 12  9  1  0  0  0  0
 12 15  2  0  0  0  0
 13 12  1  0  0  0  0
 15 14  1  0  0  0  0
 16 13  1  6  0  0  0
 16 17  1  0  0  0  0
 18 21  2  0  0  0  0
 18 16  1  0  0  0  0
 19 22  1  0  0  0  0
 19 17  2  0  0  0  0
 20 18  1  0  0  0  0
 21 19  1  0  0  0  0
 22 25  2  0  0  0  0
 23 20  1  0  0  0  0
 23 24  2  0  0  0  0
 24 21  1  0  0  0  0
 25 27  1  0  0  0  0
 26 22  1  0  0  0  0
 26 28  1  0  0  0  0
 27 36  1  0  0  0  0
 28 27  2  0  0  0  0
 30  2  1  0  0  0  0
 31  4  1  0  0  0  0
 33  8  1  0  0  0  0
 34 23  1  0  0  0  0
 35 24  1  0  0  0  0
 37 28  1  0  0  0  0
M  END
$$$$
scan_sander_basal_param/min_pdbs/min_pdb_C271_345.pdb
 OpenBabel10021702303D

 37 42  0  0  1  0  0  0  0  0999 V2000
   -0.4980    0.3720    0.0380 C   0  0  0  0  0  0  0  0  0  0  0  0
    0.5880    0.4440   -0.8500 C   0  0  0  0  0  0  0  0  0  0  0  0
   -0.7920    1.3570    0.9070 N   0  0  0  0  0  0  0  0  0  0  0  0
    1.4040    1.5860   -0.8330 C   0  0  0  0  0  0  0  0  0  0  0  0
   -0.0040    2.4510    0.9240 C   0  0  0  0  0  0  0  0  0  0  0  0
    1.1210    2.6310    0.0790 C   0  0  0  0  0  0  0  0  0  0  0  0
    1.9560    3.8730    0.1130 C   0  0  0  0  0  0  0  0  0  0  0  0
    2.3780    4.4940   -1.0820 C   0  0  0  0  0  0  0  0  0  0  0  0
    2.3790    4.5020    1.3060 C   0  0  0  0  0  0  0  0  0  0  0  0
    3.1280    5.6120   -1.1210 N   0  0  0  0  0  0  0  0  0  0  0  0
    2.0900    4.0410    2.5390 N   0  0  0  0  0  0  0  0  0  0  0  0
    3.1550    5.6550    1.2710 C   0  0  0  0  0  0  0  0  0  0  0  0
    3.5310    6.2150    0.0210 C   0  0  0  0  0  0  0  0  0  0  0  0
    2.8020    5.0930    3.5670 S   0  0  0  0  0  0  0  0  0  0  0  0
    3.4820    6.1270    2.4970 N   0  0  0  0  0  0  0  0  0  0  0  0
    4.3550    7.4460   -0.1000 C   0  0  1  0  0  0  0  0  0  0  0  0
    5.0220    8.4020    1.2460 B   0  0  0  0  0  0  0  0  0  0  0  0
    4.7360    8.0400   -1.2930 C   0  0  0  0  0  0  0  0  0  0  0  0
    5.7910    9.5550    0.1490 C   0  0  0  0  0  0  0  0  0  0  0  0
    4.3840    7.5900   -2.9460 S   0  0  0  0  0  0  0  0  0  0  0  0
    5.5160    9.1860   -1.1430 C   0  0  0  0  0  0  0  0  0  0  0  0
    6.6130   10.6640    0.5510 C   0  0  0  0  0  0  0  0  0  0  0  0
    5.3160    9.0210   -3.4620 C   0  0  0  0  0  0  0  0  0  0  0  0
    5.8410    9.7560   -2.4100 C   0  0  0  0  0  0  0  0  0  0  0  0
    6.5370   10.9880    1.8290 C   0  0  0  0  0  0  0  0  0  0  0  0
    7.7360   11.5850   -0.4260 S   0  0  0  0  0  0  0  0  0  0  0  0
    7.3820   12.0390    2.1050 C   0  0  0  0  0  0  0  0  0  0  0  0
    8.1010   12.4910    1.0220 C   0  0  0  0  0  0  0  0  0  0  0  0
   -1.1530   -0.4990    0.0520 H   0  0  0  0  0  0  0  0  0  0  0  0
    0.7900   -0.3720   -1.5370 H   0  0  0  0  0  0  0  0  0  0  0  0
    2.2520    1.6600   -1.5080 H   0  0  0  0  0  0  0  0  0  0  0  0
   -0.2880    3.2260    1.6350 H   0  0  0  0  0  0  0  0  0  0  0  0
    2.0930    4.0810   -2.0500 H   0  0  0  0  0  0  0  0  0  0  0  0
    5.4020    9.2250   -4.5210 H   0  0  0  0  0  0  0  0  0  0  0  0
    6.4130   10.6620   -2.5530 H   0  0  0  0  0  0  0  0  0  0  0  0
    7.4280   12.4260    3.1160 H   0  0  0  0  0  0  0  0  0  0  0  0
    8.8230   13.2950    0.9850 H   0  0  0  0  0  0  0  0  0  0  0  0
  1 29  1  0  0  0  0
  1  3  2  0  0  0  0
  2  4  2  0  0  0  0
  2  1  1  0  0  0  0
  3  5  1  0  0  0  0
  4  6  1  0  0  0  0
  5 32  1  0  0  0  0
  6  7  1  0  0  0  0
  6  5  2  0  0  0  0
  7  9  1  0  0  0  0
  8  7  2  0  0  0  0
  9 11  2  0  0  0  0
 10  8  1  0  0  0  0
 10 13  2  0  0  0  0
 11 14  1  0  0  0  0
 12  9  1  0  0  0  0
 12 15  2  0  0  0  0
 13 12  1  0  0  0  0
 15 14  1  0  0  0  0
 16 13  1  6  0  0  0
 16 17  1  0  0  0  0
 18 21  2  0  0  0  0
 18 16  1  0  0  0  0
 19 22  1  0  0  0  0
 19 17  2  0  0  0  0
 20 18  1  0  0  0  0
 21 19  1  0  0  0  0
 22 25  2  0  0  0  0
 23 20  1  0  0  0  0
 23 24  2  0  0  0  0
 24 21  1  0  0  0  0
 25 27  1  0  0  0  0
 26 22  1  0  0  0  0
 26 28  1  0  0  0  0
 27 36  1  0  0  0  0
 28 27  2  0  0  0  0
 30  2  1  0  0  0  0
 31  4  1  0  0  0  0
 33  8  1  0  0  0  0
 34 23  1  0  0  0  0
 35 24  1  0  0  0  0
 37 28  1  0  0  0  0
M  END
$$$$
scan_sander_basal_param/min_pdbs/min_pdb_C271_360.pdb
 OpenBabel10021702303D

 37 42  0  0  1  0  0  0  0  0999 V2000
   -0.5130    0.3840    0.0480 C   0  0  0  0  0  0  0  0  0  0  0  0
    0.5730    0.4500   -0.8410 C   0  0  0  0  0  0  0  0  0  0  0  0
   -0.8030    1.3720    0.9140 N   0  0  0  0  0  0  0  0  0  0  0  0
    1.3940    1.5890   -0.8260 C   0  0  0  0  0  0  0  0  0  0  0  0
   -0.0110    2.4640    0.9290 C   0  0  0  0  0  0  0  0  0  0  0  0
    1.1140    2.6380    0.0820 C   0  0  0  0  0  0  0  0  0  0  0  0
    1.9530    3.8760    0.1130 C   0  0  0  0  0  0  0  0  0  0  0  0
    2.3780    4.4930   -1.0840 C   0  0  0  0  0  0  0  0  0  0  0  0
    2.3780    4.5070    1.3040 C   0  0  0  0  0  0  0  0  0  0  0  0
    3.1320    5.6080   -1.1260 N   0  0  0  0  0  0  0  0  0  0  0  0
    2.0880    4.0520    2.5390 N   0  0  0  0  0  0  0  0  0  0  0  0
    3.1600    5.6570    1.2660 C   0  0  0  0  0  0  0  0  0  0  0  0
    3.5380    6.2120    0.0140 C   0  0  0  0  0  0  0  0  0  0  0  0
    2.8040    5.1030    3.5630 S   0  0  0  0  0  0  0  0  0  0  0  0
    3.4880    6.1320    2.4910 N   0  0  0  0  0  0  0  0  0  0  0  0
    4.3690    7.4380   -0.1100 C   0  0  1  0  0  0  0  0  0  0  0  0
    5.0400    8.3940    1.2330 B   0  0  0  0  0  0  0  0  0  0  0  0
    4.7540    8.0290   -1.3040 C   0  0  0  0  0  0  0  0  0  0  0  0
    5.8110    9.5460    0.1360 C   0  0  0  0  0  0  0  0  0  0  0  0
    4.4090    7.5650   -2.9550 S   0  0  0  0  0  0  0  0  0  0  0  0
    5.5370    9.1740   -1.1570 C   0  0  0  0  0  0  0  0  0  0  0  0
    6.5960   10.6810    0.5470 C   0  0  0  0  0  0  0  0  0  0  0  0
    5.3650    8.9760   -3.4770 C   0  0  0  0  0  0  0  0  0  0  0  0
    5.8880    9.7180   -2.4290 C   0  0  0  0  0  0  0  0  0  0  0  0
    6.7200   10.8310    1.8540 C   0  0  0  0  0  0  0  0  0  0  0  0
    7.3980   11.8730   -0.4530 S   0  0  0  0  0  0  0  0  0  0  0  0
    7.4860   11.9400    2.1390 C   0  0  0  0  0  0  0  0  0  0  0  0
    7.9360   12.6200    1.0310 C   0  0  0  0  0  0  0  0  0  0  0  0
   -1.1710   -0.4840    0.0640 H   0  0  0  0  0  0  0  0  0  0  0  0
    0.7720   -0.3690   -1.5250 H   0  0  0  0  0  0  0  0  0  0  0  0
    2.2420    1.6580   -1.5020 H   0  0  0  0  0  0  0  0  0  0  0  0
   -0.2930    3.2420    1.6370 H   0  0  0  0  0  0  0  0  0  0  0  0
    2.0910    4.0790   -2.0500 H   0  0  0  0  0  0  0  0  0  0  0  0
    5.4730    9.1610   -4.5380 H   0  0  0  0  0  0  0  0  0  0  0  0
    6.4890   10.6030   -2.5830 H   0  0  0  0  0  0  0  0  0  0  0  0
    7.6780   12.1950    3.1750 H   0  0  0  0  0  0  0  0  0  0  0  0
    8.5470   13.5110    0.9930 H   0  0  0  0  0  0  0  0  0  0  0  0
  1 29  1  0  0  0  0
  1  3  2  0  0  0  0
  2  4  2  0  0  0  0
  2  1  1  0  0  0  0
  3  5  1  0  0  0  0
  4  6  1  0  0  0  0
  5 32  1  0  0  0  0
  6  7  1  0  0  0  0
  6  5  2  0  0  0  0
  7  9  1  0  0  0  0
  8  7  2  0  0  0  0
  9 11  2  0  0  0  0
 10  8  1  0  0  0  0
 10 13  2  0  0  0  0
 11 14  1  0  0  0  0
 12  9  1  0  0  0  0
 12 15  2  0  0  0  0
 13 12  1  0  0  0  0
 15 14  1  0  0  0  0
 16 13  1  6  0  0  0
 16 17  1  0  0  0  0
 18 21  2  0  0  0  0
 18 16  1  0  0  0  0
 19 22  1  0  0  0  0
 19 17  2  0  0  0  0
 20 18  1  0  0  0  0
 21 19  1  0  0  0  0
 22 25  2  0  0  0  0
 23 20  1  0  0  0  0
 23 24  2  0  0  0  0
 24 21  1  0  0  0  0
 25 27  1  0  0  0  0
 26 22  1  0  0  0  0
 26 28  1  0  0  0  0
 27 36  1  0  0  0  0
 28 27  2  0  0  0  0
 30  2  1  0  0  0  0
 31  4  1  0  0  0  0
 33  8  1  0  0  0  0
 34 23  1  0  0  0  0
 35 24  1  0  0  0  0
 37 28  1  0  0  0  0
M  END
$$$$
