scan_sander_basal_param/min_pdbs/min_pdb_C169_000.pdb
 OpenBabel10021702073D

 39 44  0  0  1  0  0  0  0  0999 V2000
   -0.3440    0.1710   -0.1300 C   0  0  0  0  0  0  0  0  0  0  0  0
   -0.3820    1.0820   -1.1920 C   0  0  0  0  0  0  0  0  0  0  0  0
    0.4280    0.4850    0.9960 C   0  0  0  0  0  0  0  0  0  0  0  0
    0.3580    2.2690   -1.0790 C   0  0  0  0  0  0  0  0  0  0  0  0
    1.1350    1.6260    1.0940 N   0  0  0  0  0  0  0  0  0  0  0  0
    1.1260    2.5330    0.0900 C   0  0  0  0  0  0  0  0  0  0  0  0
    1.9410    3.8060    0.2390 C   0  0  0  0  0  0  0  0  0  0  0  0
    1.8870    4.6610   -0.8060 N   0  0  0  0  0  0  0  0  0  0  0  0
    2.7430    4.1600    1.3620 C   0  0  0  0  0  0  0  0  0  0  0  0
    2.5770    5.8170   -0.7990 C   0  0  0  0  0  0  0  0  0  0  0  0
    2.9040    3.4110    2.4760 N   0  0  0  0  0  0  0  0  0  0  0  0
    3.4540    5.3620    1.3710 C   0  0  0  0  0  0  0  0  0  0  0  0
    3.3970    6.2570    0.2660 C   0  0  0  0  0  0  0  0  0  0  0  0
    3.9240    4.2430    3.4360 S   0  0  0  0  0  0  0  0  0  0  0  0
    4.1850    5.5490    2.4920 N   0  0  0  0  0  0  0  0  0  0  0  0
    4.1550    7.5450    0.1940 C   0  0  1  0  0  0  0  0  0  0  0  0
    4.9560    8.2460    1.6250 B   0  0  0  0  0  0  0  0  0  0  0  0
    4.3750    8.3980   -0.9880 C   0  0  0  0  0  0  0  0  0  0  0  0
    5.6070    9.5580    0.6550 C   0  0  0  0  0  0  0  0  0  0  0  0
    3.8750    8.1620   -2.2200 N   0  0  0  0  0  0  0  0  0  0  0  0
    5.1710    9.5220   -0.7330 C   0  0  0  0  0  0  0  0  0  0  0  0
    6.5040   10.5560    1.1910 C   0  0  0  0  0  0  0  0  0  0  0  0
    4.1480    9.0800   -3.1710 C   0  0  0  0  0  0  0  0  0  0  0  0
    5.4250   10.4620   -1.6670 N   0  0  0  0  0  0  0  0  0  0  0  0
    7.3850   11.2930    0.4350 C   0  0  0  0  0  0  0  0  0  0  0  0
    6.5870   10.9750    2.8980 S   0  0  0  0  0  0  0  0  0  0  0  0
    4.9120   10.2310   -2.8930 C   0  0  0  0  0  0  0  0  0  0  0  0
    8.1390   12.2130    1.2200 C   0  0  0  0  0  0  0  0  0  0  0  0
    7.8310   12.1740    2.5580 C   0  0  0  0  0  0  0  0  0  0  0  0
   -0.9010   -0.7590   -0.1750 H   0  0  0  0  0  0  0  0  0  0  0  0
   -0.9690    0.8760   -2.0830 H   0  0  0  0  0  0  0  0  0  0  0  0
    0.4860   -0.1950    1.8450 H   0  0  0  0  0  0  0  0  0  0  0  0
    0.3370    2.9810   -1.8970 H   0  0  0  0  0  0  0  0  0  0  0  0
    2.4090    6.4130   -1.6870 H   0  0  0  0  0  0  0  0  0  0  0  0
    3.7420    8.8960   -4.1640 H   0  0  0  0  0  0  0  0  0  0  0  0
    7.5390   11.1900   -0.6310 H   0  0  0  0  0  0  0  0  0  0  0  0
    5.1170   10.9740   -3.6620 H   0  0  0  0  0  0  0  0  0  0  0  0
    8.8880   12.8740    0.7940 H   0  0  0  0  0  0  0  0  0  0  0  0
    8.2510   12.7590    3.3660 H   0  0  0  0  0  0  0  0  0  0  0  0
  1  3  2  0  0  0  0
  2  4  2  0  0  0  0
  2  1  1  0  0  0  0
  3  5  1  0  0  0  0
  3 32  1  0  0  0  0
  4  6  1  0  0  0  0
  6  7  1  0  0  0  0
  6  5  2  0  0  0  0
  7  9  1  0  0  0  0
  8 10  1  0  0  0  0
  8  7  2  0  0  0  0
  9 12  1  0  0  0  0
  9 11  2  0  0  0  0
 10 13  2  0  0  0  0
 11 14  1  0  0  0  0
 12 15  2  0  0  0  0
 13 12  1  0  0  0  0
 15 14  1  0  0  0  0
 16 13  1  6  0  0  0
 16 17  1  0  0  0  0
 18 21  1  0  0  0  0
 18 16  1  0  0  0  0
 19 22  1  0  0  0  0
 19 17  2  0  0  0  0
 20 18  2  0  0  0  0
 21 19  1  0  0  0  0
 22 26  1  0  0  0  0
 23 27  2  0  0  0  0
 23 20  1  0  0  0  0
 24 21  2  0  0  0  0
 25 22  2  0  0  0  0
 25 28  1  0  0  0  0
 27 24  1  0  0  0  0
 28 29  2  0  0  0  0
 29 26  1  0  0  0  0
 29 39  1  0  0  0  0
 30  1  1  0  0  0  0
 31  2  1  0  0  0  0
 33  4  1  0  0  0  0
 34 10  1  0  0  0  0
 35 23  1  0  0  0  0
 36 25  1  0  0  0  0
 37 27  1  0  0  0  0
 38 28  1  0  0  0  0
M  END
$$$$
scan_sander_basal_param/min_pdbs/min_pdb_C169_015.pdb
 OpenBabel10021702073D

 39 44  0  0  1  0  0  0  0  0999 V2000
   -0.4230    0.2240   -0.0850 C   0  0  0  0  0  0  0  0  0  0  0  0
   -0.2180    0.9810   -1.2450 C   0  0  0  0  0  0  0  0  0  0  0  0
    0.1550    0.6640    1.1140 C   0  0  0  0  0  0  0  0  0  0  0  0
    0.5570    2.1460   -1.1520 C   0  0  0  0  0  0  0  0  0  0  0  0
    0.8970    1.7830    1.1940 N   0  0  0  0  0  0  0  0  0  0  0  0
    1.1200    2.5390    0.0940 C   0  0  0  0  0  0  0  0  0  0  0  0
    1.9570    3.7960    0.2260 C   0  0  0  0  0  0  0  0  0  0  0  0
    1.8750    4.6670   -0.8040 N   0  0  0  0  0  0  0  0  0  0  0  0
    2.7940    4.1250    1.3290 C   0  0  0  0  0  0  0  0  0  0  0  0
    2.5690    5.8210   -0.7960 C   0  0  0  0  0  0  0  0  0  0  0  0
    3.0000    3.3410    2.4120 N   0  0  0  0  0  0  0  0  0  0  0  0
    3.5080    5.3240    1.3400 C   0  0  0  0  0  0  0  0  0  0  0  0
    3.4180    6.2400    0.2550 C   0  0  0  0  0  0  0  0  0  0  0  0
    4.0500    4.1530    3.3580 S   0  0  0  0  0  0  0  0  0  0  0  0
    4.2780    5.4840    2.4390 N   0  0  0  0  0  0  0  0  0  0  0  0
    4.1730    7.5310    0.1870 C   0  0  1  0  0  0  0  0  0  0  0  0
    5.0120    8.2040    1.6100 B   0  0  0  0  0  0  0  0  0  0  0  0
    4.3590    8.4080   -0.9830 C   0  0  0  0  0  0  0  0  0  0  0  0
    5.6230    9.5440    0.6530 C   0  0  0  0  0  0  0  0  0  0  0  0
    3.8320    8.1910   -2.2060 N   0  0  0  0  0  0  0  0  0  0  0  0
    5.1530    9.5320   -0.7240 C   0  0  0  0  0  0  0  0  0  0  0  0
    6.5210   10.5420    1.1880 C   0  0  0  0  0  0  0  0  0  0  0  0
    4.0770    9.1280   -3.1460 C   0  0  0  0  0  0  0  0  0  0  0  0
    5.3800   10.4910   -1.6470 N   0  0  0  0  0  0  0  0  0  0  0  0
    7.3740   11.3070    0.4280 C   0  0  0  0  0  0  0  0  0  0  0  0
    6.6410   10.9240    2.9020 S   0  0  0  0  0  0  0  0  0  0  0  0
    4.8390   10.2790   -2.8650 C   0  0  0  0  0  0  0  0  0  0  0  0
    8.1350   12.2190    1.2150 C   0  0  0  0  0  0  0  0  0  0  0  0
    7.8600   12.1470    2.5590 C   0  0  0  0  0  0  0  0  0  0  0  0
   -1.0160   -0.6850   -0.1110 H   0  0  0  0  0  0  0  0  0  0  0  0
   -0.6490    0.6740   -2.1950 H   0  0  0  0  0  0  0  0  0  0  0  0
    0.0200    0.1050    2.0400 H   0  0  0  0  0  0  0  0  0  0  0  0
    0.7270    2.7420   -2.0430 H   0  0  0  0  0  0  0  0  0  0  0  0
    2.3770    6.4340   -1.6670 H   0  0  0  0  0  0  0  0  0  0  0  0
    3.6490    8.9600   -4.1330 H   0  0  0  0  0  0  0  0  0  0  0  0
    7.5040   11.2300   -0.6430 H   0  0  0  0  0  0  0  0  0  0  0  0
    5.0220   11.0370   -3.6250 H   0  0  0  0  0  0  0  0  0  0  0  0
    8.8650   12.8990    0.7860 H   0  0  0  0  0  0  0  0  0  0  0  0
    8.2910   12.7200    3.3690 H   0  0  0  0  0  0  0  0  0  0  0  0
  1  3  2  0  0  0  0
  2  4  2  0  0  0  0
  2  1  1  0  0  0  0
  3  5  1  0  0  0  0
  3 32  1  0  0  0  0
  4  6  1  0  0  0  0
  6  7  1  0  0  0  0
  6  5  2  0  0  0  0
  7  9  1  0  0  0  0
  8 10  1  0  0  0  0
  8  7  2  0  0  0  0
  9 12  1  0  0  0  0
  9 11  2  0  0  0  0
 10 13  2  0  0  0  0
 11 14  1  0  0  0  0
 12 15  2  0  0  0  0
 13 12  1  0  0  0  0
 15 14  1  0  0  0  0
 16 13  1  6  0  0  0
 16 17  1  0  0  0  0
 18 21  1  0  0  0  0
 18 16  1  0  0  0  0
 19 22  1  0  0  0  0
 19 17  2  0  0  0  0
 20 18  2  0  0  0  0
 21 19  1  0  0  0  0
 22 26  1  0  0  0  0
 23 27  2  0  0  0  0
 23 20  1  0  0  0  0
 24 21  2  0  0  0  0
 25 22  2  0  0  0  0
 25 28  1  0  0  0  0
 27 24  1  0  0  0  0
 28 29  2  0  0  0  0
 29 26  1  0  0  0  0
 29 39  1  0  0  0  0
 30  1  1  0  0  0  0
 31  2  1  0  0  0  0
 33  4  1  0  0  0  0
 34 10  1  0  0  0  0
 35 23  1  0  0  0  0
 36 25  1  0  0  0  0
 37 27  1  0  0  0  0
 38 28  1  0  0  0  0
M  END
$$$$
scan_sander_basal_param/min_pdbs/min_pdb_C169_030.pdb
 OpenBabel10021702073D

 39 44  0  0  1  0  0  0  0  0999 V2000
   -0.4600    0.2660   -0.0540 C   0  0  0  0  0  0  0  0  0  0  0  0
   -0.0220    0.8520   -1.2480 C   0  0  0  0  0  0  0  0  0  0  0  0
   -0.0920    0.8590    1.1630 C   0  0  0  0  0  0  0  0  0  0  0  0
    0.7680    2.0080   -1.1710 C   0  0  0  0  0  0  0  0  0  0  0  0
    0.6660    1.9680    1.2290 N   0  0  0  0  0  0  0  0  0  0  0  0
    1.1100    2.5560    0.0940 C   0  0  0  0  0  0  0  0  0  0  0  0
    1.9510    3.8030    0.2070 C   0  0  0  0  0  0  0  0  0  0  0  0
    1.8400    4.6870   -0.8070 N   0  0  0  0  0  0  0  0  0  0  0  0
    2.8160    4.1050    1.2920 C   0  0  0  0  0  0  0  0  0  0  0  0
    2.5380    5.8400   -0.7940 C   0  0  0  0  0  0  0  0  0  0  0  0
    3.0490    3.2890    2.3440 N   0  0  0  0  0  0  0  0  0  0  0  0
    3.5340    5.3000    1.3080 C   0  0  0  0  0  0  0  0  0  0  0  0
    3.4160    6.2370    0.2430 C   0  0  0  0  0  0  0  0  0  0  0  0
    4.1260    4.0780    3.2800 S   0  0  0  0  0  0  0  0  0  0  0  0
    4.3360    5.4310    2.3880 N   0  0  0  0  0  0  0  0  0  0  0  0
    4.1710    7.5270    0.1810 C   0  0  1  0  0  0  0  0  0  0  0  0
    5.0490    8.1690    1.5950 B   0  0  0  0  0  0  0  0  0  0  0  0
    4.3290    8.4270   -0.9760 C   0  0  0  0  0  0  0  0  0  0  0  0
    5.6340    9.5310    0.6510 C   0  0  0  0  0  0  0  0  0  0  0  0
    3.7720    8.2340   -2.1900 N   0  0  0  0  0  0  0  0  0  0  0  0
    5.1290    9.5460   -0.7150 C   0  0  0  0  0  0  0  0  0  0  0  0
    6.5430   10.5180    1.1840 C   0  0  0  0  0  0  0  0  0  0  0  0
    3.9940    9.1900   -3.1170 C   0  0  0  0  0  0  0  0  0  0  0  0
    5.3340   10.5230   -1.6240 N   0  0  0  0  0  0  0  0  0  0  0  0
    7.3760   11.3010    0.4190 C   0  0  0  0  0  0  0  0  0  0  0  0
    6.7050   10.8650    2.9020 S   0  0  0  0  0  0  0  0  0  0  0  0
    4.7640   10.3350   -2.8320 C   0  0  0  0  0  0  0  0  0  0  0  0
    8.1560   12.1980    1.2060 C   0  0  0  0  0  0  0  0  0  0  0  0
    7.9140   12.0970    2.5540 C   0  0  0  0  0  0  0  0  0  0  0  0
   -1.0740   -0.6300   -0.0670 H   0  0  0  0  0  0  0  0  0  0  0  0
   -0.2880    0.4230   -2.2110 H   0  0  0  0  0  0  0  0  0  0  0  0
   -0.4140    0.4340    2.1130 H   0  0  0  0  0  0  0  0  0  0  0  0
    1.1210    2.4800   -2.0820 H   0  0  0  0  0  0  0  0  0  0  0  0
    2.3260    6.4700   -1.6480 H   0  0  0  0  0  0  0  0  0  0  0  0
    3.5420    9.0410   -4.0960 H   0  0  0  0  0  0  0  0  0  0  0  0
    7.4790   11.2460   -0.6560 H   0  0  0  0  0  0  0  0  0  0  0  0
    4.9280   11.1080   -3.5810 H   0  0  0  0  0  0  0  0  0  0  0  0
    8.8730   12.8880    0.7740 H   0  0  0  0  0  0  0  0  0  0  0  0
    8.3640   12.6540    3.3660 H   0  0  0  0  0  0  0  0  0  0  0  0
  1  3  2  0  0  0  0
  2  4  2  0  0  0  0
  2  1  1  0  0  0  0
  3  5  1  0  0  0  0
  3 32  1  0  0  0  0
  4  6  1  0  0  0  0
  6  7  1  0  0  0  0
  6  5  2  0  0  0  0
  7  9  1  0  0  0  0
  8 10  1  0  0  0  0
  8  7  2  0  0  0  0
  9 12  1  0  0  0  0
  9 11  2  0  0  0  0
 10 13  2  0  0  0  0
 11 14  1  0  0  0  0
 12 15  2  0  0  0  0
 13 12  1  0  0  0  0
 15 14  1  0  0  0  0
 16 13  1  6  0  0  0
 16 17  1  0  0  0  0
 18 21  1  0  0  0  0
 18 16  1  0  0  0  0
 19 22  1  0  0  0  0
 19 17  2  0  0  0  0
 20 18  2  0  0  0  0
 21 19  1  0  0  0  0
 22 26  1  0  0  0  0
 23 27  2  0  0  0  0
 23 20  1  0  0  0  0
 24 21  2  0  0  0  0
 25 22  2  0  0  0  0
 25 28  1  0  0  0  0
 27 24  1  0  0  0  0
 28 29  2  0  0  0  0
 29 26  1  0  0  0  0
 29 39  1  0  0  0  0
 30  1  1  0  0  0  0
 31  2  1  0  0  0  0
 33  4  1  0  0  0  0
 34 10  1  0  0  0  0
 35 23  1  0  0  0  0
 36 25  1  0  0  0  0
 37 27  1  0  0  0  0
 38 28  1  0  0  0  0
M  END
$$$$
scan_sander_basal_param/min_pdbs/min_pdb_C169_045.pdb
 OpenBabel10021702073D

 39 44  0  0  1  0  0  0  0  0999 V2000
   -0.4560    0.2820   -0.0410 C   0  0  0  0  0  0  0  0  0  0  0  0
    0.2030    0.7040   -1.2030 C   0  0  0  0  0  0  0  0  0  0  0  0
   -0.3080    1.0370    1.1330 C   0  0  0  0  0  0  0  0  0  0  0  0
    0.9870    1.8650   -1.1370 C   0  0  0  0  0  0  0  0  0  0  0  0
    0.4450    2.1510    1.1900 N   0  0  0  0  0  0  0  0  0  0  0  0
    1.0960    2.5760    0.0840 C   0  0  0  0  0  0  0  0  0  0  0  0
    1.9250    3.8250    0.1870 C   0  0  0  0  0  0  0  0  0  0  0  0
    1.7850    4.7230   -0.8100 N   0  0  0  0  0  0  0  0  0  0  0  0
    2.8130    4.1000    1.2540 C   0  0  0  0  0  0  0  0  0  0  0  0
    2.4850    5.8750   -0.7890 C   0  0  0  0  0  0  0  0  0  0  0  0
    3.0610    3.2560    2.2800 N   0  0  0  0  0  0  0  0  0  0  0  0
    3.5330    5.2920    1.2780 C   0  0  0  0  0  0  0  0  0  0  0  0
    3.3910    6.2490    0.2340 C   0  0  0  0  0  0  0  0  0  0  0  0
    4.1610    4.0220    3.2100 S   0  0  0  0  0  0  0  0  0  0  0  0
    4.3590    5.3950    2.3430 N   0  0  0  0  0  0  0  0  0  0  0  0
    4.1490    7.5370    0.1800 C   0  0  1  0  0  0  0  0  0  0  0  0
    5.0640    8.1470    1.5840 B   0  0  0  0  0  0  0  0  0  0  0  0
    4.2810    8.4600   -0.9620 C   0  0  0  0  0  0  0  0  0  0  0  0
    5.6380    9.5200    0.6500 C   0  0  0  0  0  0  0  0  0  0  0  0
    3.6890    8.2980   -2.1640 N   0  0  0  0  0  0  0  0  0  0  0  0
    5.0970    9.5680   -0.7000 C   0  0  0  0  0  0  0  0  0  0  0  0
    6.5730   10.4870    1.1770 C   0  0  0  0  0  0  0  0  0  0  0  0
    3.8920    9.2710   -3.0760 C   0  0  0  0  0  0  0  0  0  0  0  0
    5.2830   10.5630   -1.5930 N   0  0  0  0  0  0  0  0  0  0  0  0
    7.3940   11.2750    0.4040 C   0  0  0  0  0  0  0  0  0  0  0  0
    6.7860   10.8000    2.8960 S   0  0  0  0  0  0  0  0  0  0  0  0
    4.6780   10.4050   -2.7880 C   0  0  0  0  0  0  0  0  0  0  0  0
    8.2050   12.1490    1.1860 C   0  0  0  0  0  0  0  0  0  0  0  0
    7.9990   12.0250    2.5380 C   0  0  0  0  0  0  0  0  0  0  0  0
   -1.0740   -0.6110   -0.0470 H   0  0  0  0  0  0  0  0  0  0  0  0
    0.1100    0.1470   -2.1320 H   0  0  0  0  0  0  0  0  0  0  0  0
   -0.8070    0.7420    2.0560 H   0  0  0  0  0  0  0  0  0  0  0  0
    1.5100    2.2210   -2.0200 H   0  0  0  0  0  0  0  0  0  0  0  0
    2.2540    6.5220   -1.6250 H   0  0  0  0  0  0  0  0  0  0  0  0
    3.4110    9.1470   -4.0450 H   0  0  0  0  0  0  0  0  0  0  0  0
    7.4660   11.2400   -0.6750 H   0  0  0  0  0  0  0  0  0  0  0  0
    4.8260   11.1930   -3.5250 H   0  0  0  0  0  0  0  0  0  0  0  0
    8.9180   12.8390    0.7470 H   0  0  0  0  0  0  0  0  0  0  0  0
    8.4780   12.5610    3.3470 H   0  0  0  0  0  0  0  0  0  0  0  0
  1  3  2  0  0  0  0
  2  4  2  0  0  0  0
  2  1  1  0  0  0  0
  3  5  1  0  0  0  0
  3 32  1  0  0  0  0
  4  6  1  0  0  0  0
  6  7  1  0  0  0  0
  6  5  2  0  0  0  0
  7  9  1  0  0  0  0
  8 10  1  0  0  0  0
  8  7  2  0  0  0  0
  9 12  1  0  0  0  0
  9 11  2  0  0  0  0
 10 13  2  0  0  0  0
 11 14  1  0  0  0  0
 12 15  2  0  0  0  0
 13 12  1  0  0  0  0
 15 14  1  0  0  0  0
 16 13  1  6  0  0  0
 16 17  1  0  0  0  0
 18 21  1  0  0  0  0
 18 16  1  0  0  0  0
 19 22  1  0  0  0  0
 19 17  2  0  0  0  0
 20 18  2  0  0  0  0
 21 19  1  0  0  0  0
 22 26  1  0  0  0  0
 23 27  2  0  0  0  0
 23 20  1  0  0  0  0
 24 21  2  0  0  0  0
 25 22  2  0  0  0  0
 25 28  1  0  0  0  0
 27 24  1  0  0  0  0
 28 29  2  0  0  0  0
 29 26  1  0  0  0  0
 29 39  1  0  0  0  0
 30  1  1  0  0  0  0
 31  2  1  0  0  0  0
 33  4  1  0  0  0  0
 34 10  1  0  0  0  0
 35 23  1  0  0  0  0
 36 25  1  0  0  0  0
 37 27  1  0  0  0  0
 38 28  1  0  0  0  0
M  END
$$$$
scan_sander_basal_param/min_pdbs/min_pdb_C169_060.pdb
 OpenBabel10021702073D

 39 44  0  0  1  0  0  0  0  0999 V2000
   -0.4660    0.3020   -0.0260 C   0  0  0  0  0  0  0  0  0  0  0  0
    0.3970    0.5680   -1.0980 C   0  0  0  0  0  0  0  0  0  0  0  0
   -0.5130    1.2050    1.0480 C   0  0  0  0  0  0  0  0  0  0  0  0
    1.1790    1.7310   -1.0460 C   0  0  0  0  0  0  0  0  0  0  0  0
    0.2400    2.3200    1.0930 N   0  0  0  0  0  0  0  0  0  0  0  0
    1.0800    2.5950    0.0710 C   0  0  0  0  0  0  0  0  0  0  0  0
    1.9020    3.8430    0.1640 C   0  0  0  0  0  0  0  0  0  0  0  0
    1.7310    4.7590   -0.8090 N   0  0  0  0  0  0  0  0  0  0  0  0
    2.8240    4.0850    1.2060 C   0  0  0  0  0  0  0  0  0  0  0  0
    2.4400    5.9070   -0.7840 C   0  0  0  0  0  0  0  0  0  0  0  0
    3.0880    3.2140    2.2050 N   0  0  0  0  0  0  0  0  0  0  0  0
    3.5510    5.2710    1.2360 C   0  0  0  0  0  0  0  0  0  0  0  0
    3.3810    6.2520    0.2190 C   0  0  0  0  0  0  0  0  0  0  0  0
    4.2210    3.9510    3.1190 S   0  0  0  0  0  0  0  0  0  0  0  0
    4.4080    5.3430    2.2790 N   0  0  0  0  0  0  0  0  0  0  0  0
    4.1450    7.5370    0.1700 C   0  0  1  0  0  0  0  0  0  0  0  0
    5.1070    8.1090    1.5590 B   0  0  0  0  0  0  0  0  0  0  0  0
    4.2470    8.4860   -0.9530 C   0  0  0  0  0  0  0  0  0  0  0  0
    5.6530    9.5050    0.6430 C   0  0  0  0  0  0  0  0  0  0  0  0
    3.6200    8.3510   -2.1410 N   0  0  0  0  0  0  0  0  0  0  0  0
    5.0730    9.5850   -0.6900 C   0  0  0  0  0  0  0  0  0  0  0  0
    6.6020   10.4610    1.1660 C   0  0  0  0  0  0  0  0  0  0  0  0
    3.8010    9.3440   -3.0370 C   0  0  0  0  0  0  0  0  0  0  0  0
    5.2370   10.6000   -1.5660 N   0  0  0  0  0  0  0  0  0  0  0  0
    7.3990   11.2690    0.3900 C   0  0  0  0  0  0  0  0  0  0  0  0
    6.8640   10.7300    2.8860 S   0  0  0  0  0  0  0  0  0  0  0  0
    4.5970   10.4700   -2.7460 C   0  0  0  0  0  0  0  0  0  0  0  0
    8.2320   12.1240    1.1700 C   0  0  0  0  0  0  0  0  0  0  0  0
    8.0650   11.9660    2.5240 C   0  0  0  0  0  0  0  0  0  0  0  0
   -1.0900   -0.5860   -0.0250 H   0  0  0  0  0  0  0  0  0  0  0  0
    0.4580   -0.1070   -1.9480 H   0  0  0  0  0  0  0  0  0  0  0  0
   -1.1720    1.0310    1.8970 H   0  0  0  0  0  0  0  0  0  0  0  0
    1.8580    1.9730   -1.8590 H   0  0  0  0  0  0  0  0  0  0  0  0
    2.1870    6.5760   -1.5970 H   0  0  0  0  0  0  0  0  0  0  0  0
    3.2920    9.2430   -3.9950 H   0  0  0  0  0  0  0  0  0  0  0  0
    7.4410   11.2610   -0.6910 H   0  0  0  0  0  0  0  0  0  0  0  0
    4.7270   11.2740   -3.4690 H   0  0  0  0  0  0  0  0  0  0  0  0
    8.9310   12.8260    0.7280 H   0  0  0  0  0  0  0  0  0  0  0  0
    8.5660   12.4830    3.3320 H   0  0  0  0  0  0  0  0  0  0  0  0
  1 30  1  0  0  0  0
  1  3  2  0  0  0  0
  2  4  2  0  0  0  0
  2  1  1  0  0  0  0
  3  5  1  0  0  0  0
  3 32  1  0  0  0  0
  4  6  1  0  0  0  0
  6  7  1  0  0  0  0
  6  5  2  0  0  0  0
  7  9  1  0  0  0  0
  8 10  1  0  0  0  0
  8  7  2  0  0  0  0
  9 12  1  0  0  0  0
  9 11  2  0  0  0  0
 10 13  2  0  0  0  0
 11 14  1  0  0  0  0
 12 15  2  0  0  0  0
 13 12  1  0  0  0  0
 15 14  1  0  0  0  0
 16 13  1  6  0  0  0
 16 17  1  0  0  0  0
 18 21  1  0  0  0  0
 18 16  1  0  0  0  0
 19 22  1  0  0  0  0
 19 17  2  0  0  0  0
 20 18  2  0  0  0  0
 21 19  1  0  0  0  0
 22 26  1  0  0  0  0
 23 27  2  0  0  0  0
 23 20  1  0  0  0  0
 24 21  2  0  0  0  0
 25 22  2  0  0  0  0
 25 28  1  0  0  0  0
 27 24  1  0  0  0  0
 28 29  2  0  0  0  0
 29 26  1  0  0  0  0
 29 39  1  0  0  0  0
 31  2  1  0  0  0  0
 33  4  1  0  0  0  0
 34 10  1  0  0  0  0
 35 23  1  0  0  0  0
 36 25  1  0  0  0  0
 37 27  1  0  0  0  0
 38 28  1  0  0  0  0
M  END
$$$$
scan_sander_basal_param/min_pdbs/min_pdb_C169_075.pdb
 OpenBabel10021702073D

 39 44  0  0  1  0  0  0  0  0999 V2000
   -0.4780    0.3170   -0.0300 C   0  0  0  0  0  0  0  0  0  0  0  0
    0.5720    0.4460   -0.9510 C   0  0  0  0  0  0  0  0  0  0  0  0
   -0.7010    1.3500    0.8950 C   0  0  0  0  0  0  0  0  0  0  0  0
    1.3550    1.6080   -0.9040 C   0  0  0  0  0  0  0  0  0  0  0  0
    0.0530    2.4640    0.9360 N   0  0  0  0  0  0  0  0  0  0  0  0
    1.0690    2.6070    0.0560 C   0  0  0  0  0  0  0  0  0  0  0  0
    1.8840    3.8560    0.1450 C   0  0  0  0  0  0  0  0  0  0  0  0
    1.6860    4.7920   -0.8040 N   0  0  0  0  0  0  0  0  0  0  0  0
    2.8370    4.0710    1.1630 C   0  0  0  0  0  0  0  0  0  0  0  0
    2.4000    5.9360   -0.7750 C   0  0  0  0  0  0  0  0  0  0  0  0
    3.1190    3.1780    2.1350 N   0  0  0  0  0  0  0  0  0  0  0  0
    3.5690    5.2530    1.1970 C   0  0  0  0  0  0  0  0  0  0  0  0
    3.3720    6.2570    0.2070 C   0  0  0  0  0  0  0  0  0  0  0  0
    4.2820    3.8900    3.0320 S   0  0  0  0  0  0  0  0  0  0  0  0
    4.4550    5.2980    2.2180 N   0  0  0  0  0  0  0  0  0  0  0  0
    4.1400    7.5390    0.1630 C   0  0  1  0  0  0  0  0  0  0  0  0
    5.1460    8.0770    1.5340 B   0  0  0  0  0  0  0  0  0  0  0  0
    4.2120    8.5120   -0.9420 C   0  0  0  0  0  0  0  0  0  0  0  0
    5.6660    9.4940    0.6350 C   0  0  0  0  0  0  0  0  0  0  0  0
    3.5520    8.4030   -2.1150 N   0  0  0  0  0  0  0  0  0  0  0  0
    5.0480    9.6040   -0.6790 C   0  0  0  0  0  0  0  0  0  0  0  0
    6.6300   10.4370    1.1530 C   0  0  0  0  0  0  0  0  0  0  0  0
    3.7100    9.4150   -2.9940 C   0  0  0  0  0  0  0  0  0  0  0  0
    5.1900   10.6360   -1.5380 N   0  0  0  0  0  0  0  0  0  0  0  0
    7.4060   11.2630    0.3730 C   0  0  0  0  0  0  0  0  0  0  0  0
    6.9400   10.6670    2.8690 S   0  0  0  0  0  0  0  0  0  0  0  0
    4.5170   10.5320   -2.7020 C   0  0  0  0  0  0  0  0  0  0  0  0
    8.2600   12.1000    1.1480 C   0  0  0  0  0  0  0  0  0  0  0  0
    8.1310   11.9110    2.5030 C   0  0  0  0  0  0  0  0  0  0  0  0
   -1.1090   -0.5660   -0.0300 H   0  0  0  0  0  0  0  0  0  0  0  0
    0.7730   -0.3340   -1.6820 H   0  0  0  0  0  0  0  0  0  0  0  0
   -1.5070    1.2840    1.6240 H   0  0  0  0  0  0  0  0  0  0  0  0
    2.1760    1.7460   -1.6010 H   0  0  0  0  0  0  0  0  0  0  0  0
    2.1250    6.6230   -1.5650 H   0  0  0  0  0  0  0  0  0  0  0  0
    3.1750    9.3350   -3.9390 H   0  0  0  0  0  0  0  0  0  0  0  0
    7.4170   11.2790   -0.7090 H   0  0  0  0  0  0  0  0  0  0  0  0
    4.6290   11.3510   -3.4110 H   0  0  0  0  0  0  0  0  0  0  0  0
    8.9470   12.8120    0.7030 H   0  0  0  0  0  0  0  0  0  0  0  0
    8.6550   12.4100    3.3080 H   0  0  0  0  0  0  0  0  0  0  0  0
  1  3  2  0  0  0  0
  2  4  2  0  0  0  0
  2  1  1  0  0  0  0
  3  5  1  0  0  0  0
  3 32  1  0  0  0  0
  4  6  1  0  0  0  0
  6  7  1  0  0  0  0
  6  5  2  0  0  0  0
  7  9  1  0  0  0  0
  8 10  1  0  0  0  0
  8  7  2  0  0  0  0
  9 12  1  0  0  0  0
  9 11  2  0  0  0  0
 10 13  2  0  0  0  0
 11 14  1  0  0  0  0
 12 15  2  0  0  0  0
 13 12  1  0  0  0  0
 15 14  1  0  0  0  0
 16 13  1  6  0  0  0
 16 17  1  0  0  0  0
 18 21  1  0  0  0  0
 18 16  1  0  0  0  0
 19 22  1  0  0  0  0
 19 17  2  0  0  0  0
 20 18  2  0  0  0  0
 21 19  1  0  0  0  0
 22 26  1  0  0  0  0
 23 27  2  0  0  0  0
 23 20  1  0  0  0  0
 24 21  2  0  0  0  0
 25 28  1  0  0  0  0
 25 22  2  0  0  0  0
 27 24  1  0  0  0  0
 28 29  2  0  0  0  0
 29 26  1  0  0  0  0
 29 39  1  0  0  0  0
 30  1  1  0  0  0  0
 31  2  1  0  0  0  0
 33  4  1  0  0  0  0
 34 10  1  0  0  0  0
 35 23  1  0  0  0  0
 36 25  1  0  0  0  0
 37 27  1  0  0  0  0
 38 28  1  0  0  0  0
M  END
$$$$
scan_sander_basal_param/min_pdbs/min_pdb_C169_090.pdb
 OpenBabel10021702073D

 39 44  0  0  1  0  0  0  0  0999 V2000
   -0.4840    0.3240   -0.0540 C   0  0  0  0  0  0  0  0  0  0  0  0
    0.7240    0.3410   -0.7660 C   0  0  0  0  0  0  0  0  0  0  0  0
   -0.8580    1.4630    0.6770 C   0  0  0  0  0  0  0  0  0  0  0  0
    1.5070    1.5030   -0.7150 C   0  0  0  0  0  0  0  0  0  0  0  0
   -0.1030    2.5770    0.7240 N   0  0  0  0  0  0  0  0  0  0  0  0
    1.0620    2.6130    0.0420 C   0  0  0  0  0  0  0  0  0  0  0  0
    1.8710    3.8660    0.1330 C   0  0  0  0  0  0  0  0  0  0  0  0
    1.6470    4.8190   -0.7920 N   0  0  0  0  0  0  0  0  0  0  0  0
    2.8500    4.0610    1.1280 C   0  0  0  0  0  0  0  0  0  0  0  0
    2.3620    5.9630   -0.7600 C   0  0  0  0  0  0  0  0  0  0  0  0
    3.1530    3.1490    2.0770 N   0  0  0  0  0  0  0  0  0  0  0  0
    3.5830    5.2420    1.1670 C   0  0  0  0  0  0  0  0  0  0  0  0
    3.3610    6.2640    0.2020 C   0  0  0  0  0  0  0  0  0  0  0  0
    4.3400    3.8430    2.9580 S   0  0  0  0  0  0  0  0  0  0  0  0
    4.4940    5.2670    2.1650 N   0  0  0  0  0  0  0  0  0  0  0  0
    4.1280    7.5470    0.1620 C   0  0  1  0  0  0  0  0  0  0  0  0
    5.1710    8.0570    1.5160 B   0  0  0  0  0  0  0  0  0  0  0  0
    4.1720    8.5410   -0.9260 C   0  0  0  0  0  0  0  0  0  0  0  0
    5.6750    9.4870    0.6270 C   0  0  0  0  0  0  0  0  0  0  0  0
    3.4780    8.4580   -2.0800 N   0  0  0  0  0  0  0  0  0  0  0  0
    5.0200    9.6250   -0.6660 C   0  0  0  0  0  0  0  0  0  0  0  0
    6.6590   10.4150    1.1340 C   0  0  0  0  0  0  0  0  0  0  0  0
    3.6130    9.4860   -2.9430 C   0  0  0  0  0  0  0  0  0  0  0  0
    5.1400   10.6730   -1.5080 N   0  0  0  0  0  0  0  0  0  0  0  0
    7.4170   11.2500    0.3460 C   0  0  0  0  0  0  0  0  0  0  0  0
    7.0210   10.6130    2.8440 S   0  0  0  0  0  0  0  0  0  0  0  0
    4.4330   10.5950   -2.6530 C   0  0  0  0  0  0  0  0  0  0  0  0
    8.2990   12.0680    1.1110 C   0  0  0  0  0  0  0  0  0  0  0  0
    8.2090   11.8560    2.4650 C   0  0  0  0  0  0  0  0  0  0  0  0
   -1.1220   -0.5540   -0.0660 H   0  0  0  0  0  0  0  0  0  0  0  0
    1.0450   -0.5230   -1.3430 H   0  0  0  0  0  0  0  0  0  0  0  0
   -1.7890    1.4850    1.2420 H   0  0  0  0  0  0  0  0  0  0  0  0
    2.4480    1.5560   -1.2520 H   0  0  0  0  0  0  0  0  0  0  0  0
    2.0670    6.6660   -1.5290 H   0  0  0  0  0  0  0  0  0  0  0  0
    3.0500    9.4270   -3.8740 H   0  0  0  0  0  0  0  0  0  0  0  0
    7.3970   11.2860   -0.7350 H   0  0  0  0  0  0  0  0  0  0  0  0
    4.5270   11.4270   -3.3490 H   0  0  0  0  0  0  0  0  0  0  0  0
    8.9780   12.7840    0.6580 H   0  0  0  0  0  0  0  0  0  0  0  0
    8.7590   12.3360    3.2630 H   0  0  0  0  0  0  0  0  0  0  0  0
  1  3  2  0  0  0  0
  2  4  2  0  0  0  0
  2  1  1  0  0  0  0
  3  5  1  0  0  0  0
  3 32  1  0  0  0  0
  4  6  1  0  0  0  0
  6  7  1  0  0  0  0
  6  5  2  0  0  0  0
  7  9  1  0  0  0  0
  8 10  1  0  0  0  0
  8  7  2  0  0  0  0
  9 12  1  0  0  0  0
  9 11  2  0  0  0  0
 10 13  2  0  0  0  0
 11 14  1  0  0  0  0
 12 15  2  0  0  0  0
 13 12  1  0  0  0  0
 15 14  1  0  0  0  0
 16 13  1  6  0  0  0
 16 17  1  0  0  0  0
 18 21  1  0  0  0  0
 18 16  1  0  0  0  0
 19 22  1  0  0  0  0
 19 17  2  0  0  0  0
 20 18  2  0  0  0  0
 21 19  1  0  0  0  0
 22 26  1  0  0  0  0
 23 27  2  0  0  0  0
 23 20  1  0  0  0  0
 24 21  2  0  0  0  0
 25 28  1  0  0  0  0
 25 22  2  0  0  0  0
 27 24  1  0  0  0  0
 28 29  2  0  0  0  0
 29 26  1  0  0  0  0
 29 39  1  0  0  0  0
 30  1  1  0  0  0  0
 31  2  1  0  0  0  0
 33  4  1  0  0  0  0
 34 10  1  0  0  0  0
 35 23  1  0  0  0  0
 36 25  1  0  0  0  0
 37 27  1  0  0  0  0
 38 28  1  0  0  0  0
M  END
$$$$
scan_sander_basal_param/min_pdbs/min_pdb_C169_105.pdb
 OpenBabel10021702073D

 39 44  0  0  1  0  0  0  0  0999 V2000
   -0.5100    0.3400   -0.0770 C   0  0  0  0  0  0  0  0  0  0  0  0
    0.8100    0.2610   -0.5460 C   0  0  0  0  0  0  0  0  0  0  0  0
   -0.9800    1.5620    0.4280 C   0  0  0  0  0  0  0  0  0  0  0  0
    1.6030    1.4160   -0.4880 C   0  0  0  0  0  0  0  0  0  0  0  0
   -0.2150    2.6690    0.4830 N   0  0  0  0  0  0  0  0  0  0  0  0
    1.0580    2.6150    0.0320 C   0  0  0  0  0  0  0  0  0  0  0  0
    1.8710    3.8650    0.1210 C   0  0  0  0  0  0  0  0  0  0  0  0
    1.6230    4.8380   -0.7780 N   0  0  0  0  0  0  0  0  0  0  0  0
    2.8810    4.0400    1.0900 C   0  0  0  0  0  0  0  0  0  0  0  0
    2.3400    5.9800   -0.7450 C   0  0  0  0  0  0  0  0  0  0  0  0
    3.2090    3.1120    2.0130 N   0  0  0  0  0  0  0  0  0  0  0  0
    3.6180    5.2190    1.1280 C   0  0  0  0  0  0  0  0  0  0  0  0
    3.3690    6.2610    0.1910 C   0  0  0  0  0  0  0  0  0  0  0  0
    4.4240    3.7870    2.8700 S   0  0  0  0  0  0  0  0  0  0  0  0
    4.5590    5.2240    2.0990 N   0  0  0  0  0  0  0  0  0  0  0  0
    4.1370    7.5430    0.1520 C   0  0  1  0  0  0  0  0  0  0  0  0
    5.2210    8.0260    1.4830 B   0  0  0  0  0  0  0  0  0  0  0  0
    4.1490    8.5580   -0.9170 C   0  0  0  0  0  0  0  0  0  0  0  0
    5.6920    9.4770    0.6130 C   0  0  0  0  0  0  0  0  0  0  0  0
    3.4250    8.4940   -2.0540 N   0  0  0  0  0  0  0  0  0  0  0  0
    5.0020    9.6380   -0.6590 C   0  0  0  0  0  0  0  0  0  0  0  0
    6.6850   10.4000    1.1120 C   0  0  0  0  0  0  0  0  0  0  0  0
    3.5360    9.5390   -2.9010 C   0  0  0  0  0  0  0  0  0  0  0  0
    5.0980   10.7030   -1.4840 N   0  0  0  0  0  0  0  0  0  0  0  0
    7.4160   11.2570    0.3240 C   0  0  0  0  0  0  0  0  0  0  0  0
    7.0910   10.5630    2.8170 S   0  0  0  0  0  0  0  0  0  0  0  0
    4.3600   10.6440   -2.6120 C   0  0  0  0  0  0  0  0  0  0  0  0
    8.3130   12.0640    1.0820 C   0  0  0  0  0  0  0  0  0  0  0  0
    8.2610   11.8220    2.4330 C   0  0  0  0  0  0  0  0  0  0  0  0
   -1.1590   -0.5300   -0.1040 H   0  0  0  0  0  0  0  0  0  0  0  0
    1.2070   -0.6690   -0.9420 H   0  0  0  0  0  0  0  0  0  0  0  0
   -1.9990    1.6600    0.8020 H   0  0  0  0  0  0  0  0  0  0  0  0
    2.6300    1.3960   -0.8390 H   0  0  0  0  0  0  0  0  0  0  0  0
    2.0230    6.6980   -1.4910 H   0  0  0  0  0  0  0  0  0  0  0  0
    2.9480    9.4950   -3.8170 H   0  0  0  0  0  0  0  0  0  0  0  0
    7.3670   11.3160   -0.7560 H   0  0  0  0  0  0  0  0  0  0  0  0
    4.4340   11.4890   -3.2940 H   0  0  0  0  0  0  0  0  0  0  0  0
    8.9750   12.7940    0.6270 H   0  0  0  0  0  0  0  0  0  0  0  0
    8.8290   12.2890    3.2270 H   0  0  0  0  0  0  0  0  0  0  0  0
  1  3  2  0  0  0  0
  2  4  2  0  0  0  0
  2  1  1  0  0  0  0
  3  5  1  0  0  0  0
  3 32  1  0  0  0  0
  4  6  1  0  0  0  0
  6  7  1  0  0  0  0
  6  5  2  0  0  0  0
  7  9  1  0  0  0  0
  8 10  1  0  0  0  0
  8  7  2  0  0  0  0
  9 12  1  0  0  0  0
  9 11  2  0  0  0  0
 10 13  2  0  0  0  0
 11 14  1  0  0  0  0
 12 15  2  0  0  0  0
 13 12  1  0  0  0  0
 15 14  1  0  0  0  0
 16 13  1  6  0  0  0
 16 17  1  0  0  0  0
 18 21  1  0  0  0  0
 18 16  1  0  0  0  0
 19 22  1  0  0  0  0
 19 17  2  0  0  0  0
 20 18  2  0  0  0  0
 21 19  1  0  0  0  0
 22 26  1  0  0  0  0
 23 27  2  0  0  0  0
 23 20  1  0  0  0  0
 24 21  2  0  0  0  0
 25 28  1  0  0  0  0
 25 22  2  0  0  0  0
 27 24  1  0  0  0  0
 28 29  2  0  0  0  0
 29 26  1  0  0  0  0
 29 39  1  0  0  0  0
 30  1  1  0  0  0  0
 31  2  1  0  0  0  0
 33  4  1  0  0  0  0
 34 10  1  0  0  0  0
 35 23  1  0  0  0  0
 36 25  1  0  0  0  0
 37 27  1  0  0  0  0
 38 28  1  0  0  0  0
M  END
$$$$
scan_sander_basal_param/min_pdbs/min_pdb_C169_120.pdb
 OpenBabel10021702073D

 39 44  0  0  1  0  0  0  0  0999 V2000
   -0.5350    0.3510   -0.1130 C   0  0  0  0  0  0  0  0  0  0  0  0
    0.8440    0.2040   -0.3120 C   0  0  0  0  0  0  0  0  0  0  0  0
   -1.0500    1.6310    0.1480 C   0  0  0  0  0  0  0  0  0  0  0  0
    1.6500    1.3500   -0.2410 C   0  0  0  0  0  0  0  0  0  0  0  0
   -0.2730    2.7270    0.2160 N   0  0  0  0  0  0  0  0  0  0  0  0
    1.0600    2.6090    0.0240 C   0  0  0  0  0  0  0  0  0  0  0  0
    1.8820    3.8580    0.1130 C   0  0  0  0  0  0  0  0  0  0  0  0
    1.6060    4.8510   -0.7550 N   0  0  0  0  0  0  0  0  0  0  0  0
    2.9230    4.0160    1.0540 C   0  0  0  0  0  0  0  0  0  0  0  0
    2.3250    5.9920   -0.7240 C   0  0  0  0  0  0  0  0  0  0  0  0
    3.2780    3.0750    1.9560 N   0  0  0  0  0  0  0  0  0  0  0  0
    3.6610    5.1960    1.0930 C   0  0  0  0  0  0  0  0  0  0  0  0
    3.3820    6.2550    0.1840 C   0  0  0  0  0  0  0  0  0  0  0  0
    4.5180    3.7360    2.7870 S   0  0  0  0  0  0  0  0  0  0  0  0
    4.6290    5.1850    2.0350 N   0  0  0  0  0  0  0  0  0  0  0  0
    4.1490    7.5380    0.1460 C   0  0  1  0  0  0  0  0  0  0  0  0
    5.2760    7.9960    1.4500 B   0  0  0  0  0  0  0  0  0  0  0  0
    4.1280    8.5730   -0.9040 C   0  0  0  0  0  0  0  0  0  0  0  0
    5.7110    9.4700    0.5970 C   0  0  0  0  0  0  0  0  0  0  0  0
    3.3720    8.5270   -2.0210 N   0  0  0  0  0  0  0  0  0  0  0  0
    4.9830    9.6520   -0.6500 C   0  0  0  0  0  0  0  0  0  0  0  0
    6.7110   10.3890    1.0880 C   0  0  0  0  0  0  0  0  0  0  0  0
    3.4550    9.5870   -2.8520 C   0  0  0  0  0  0  0  0  0  0  0  0
    5.0530   10.7310   -1.4590 N   0  0  0  0  0  0  0  0  0  0  0  0
    7.4150   11.2680    0.2980 C   0  0  0  0  0  0  0  0  0  0  0  0
    7.1650   10.5190    2.7830 S   0  0  0  0  0  0  0  0  0  0  0  0
    4.2840   10.6900   -2.5660 C   0  0  0  0  0  0  0  0  0  0  0  0
    8.3270   12.0660    1.0480 C   0  0  0  0  0  0  0  0  0  0  0  0
    8.3140   11.7940    2.3940 C   0  0  0  0  0  0  0  0  0  0  0  0
   -1.1970   -0.5080   -0.1590 H   0  0  0  0  0  0  0  0  0  0  0  0
    1.2780   -0.7720   -0.5150 H   0  0  0  0  0  0  0  0  0  0  0  0
   -2.1170    1.7840    0.3080 H   0  0  0  0  0  0  0  0  0  0  0  0
    2.7230    1.2740   -0.3880 H   0  0  0  0  0  0  0  0  0  0  0  0
    1.9840    6.7240   -1.4450 H   0  0  0  0  0  0  0  0  0  0  0  0
    2.8430    9.5580   -3.7520 H   0  0  0  0  0  0  0  0  0  0  0  0
    7.3350   11.3500   -0.7780 H   0  0  0  0  0  0  0  0  0  0  0  0
    4.3360   11.5480   -3.2350 H   0  0  0  0  0  0  0  0  0  0  0  0
    8.9710   12.8100    0.5910 H   0  0  0  0  0  0  0  0  0  0  0  0
    8.9010   12.2490    3.1810 H   0  0  0  0  0  0  0  0  0  0  0  0
  1  3  2  0  0  0  0
  2  4  2  0  0  0  0
  2  1  1  0  0  0  0
  3  5  1  0  0  0  0
  3 32  1  0  0  0  0
  4  6  1  0  0  0  0
  6  7  1  0  0  0  0
  6  5  2  0  0  0  0
  7  9  1  0  0  0  0
  8 10  1  0  0  0  0
  8  7  2  0  0  0  0
  9 12  1  0  0  0  0
  9 11  2  0  0  0  0
 10 13  2  0  0  0  0
 11 14  1  0  0  0  0
 12 15  2  0  0  0  0
 13 12  1  0  0  0  0
 15 14  1  0  0  0  0
 16 13  1  6  0  0  0
 16 17  1  0  0  0  0
 18 21  1  0  0  0  0
 18 16  1  0  0  0  0
 19 22  1  0  0  0  0
 19 17  2  0  0  0  0
 20 18  2  0  0  0  0
 21 19  1  0  0  0  0
 22 26  1  0  0  0  0
 23 27  2  0  0  0  0
 23 20  1  0  0  0  0
 24 21  2  0  0  0  0
 25 28  1  0  0  0  0
 25 22  2  0  0  0  0
 27 24  1  0  0  0  0
 28 29  2  0  0  0  0
 29 26  1  0  0  0  0
 29 39  1  0  0  0  0
 30  1  1  0  0  0  0
 31  2  1  0  0  0  0
 33  4  1  0  0  0  0
 34 10  1  0  0  0  0
 35 23  1  0  0  0  0
 36 25  1  0  0  0  0
 37 27  1  0  0  0  0
 38 28  1  0  0  0  0
M  END
$$$$
scan_sander_basal_param/min_pdbs/min_pdb_C169_135.pdb
 OpenBabel10021702073D

 39 44  0  0  1  0  0  0  0  0999 V2000
   -0.5690    0.3640   -0.1650 C   0  0  0  0  0  0  0  0  0  0  0  0
    0.8160    0.1690   -0.0790 C   0  0  0  0  0  0  0  0  0  0  0  0
   -1.0690    1.6750   -0.1560 C   0  0  0  0  0  0  0  0  0  0  0  0
    1.6420    1.2990    0.0130 C   0  0  0  0  0  0  0  0  0  0  0  0
   -0.2720    2.7560   -0.0660 N   0  0  0  0  0  0  0  0  0  0  0  0
    1.0690    2.5960    0.0200 C   0  0  0  0  0  0  0  0  0  0  0  0
    1.9060    3.8410    0.1160 C   0  0  0  0  0  0  0  0  0  0  0  0
    1.6030    4.8570   -0.7190 N   0  0  0  0  0  0  0  0  0  0  0  0
    2.9750    3.9910    1.0310 C   0  0  0  0  0  0  0  0  0  0  0  0
    2.3190    5.9980   -0.6920 C   0  0  0  0  0  0  0  0  0  0  0  0
    3.3540    3.0470    1.9200 N   0  0  0  0  0  0  0  0  0  0  0  0
    3.7100    5.1730    1.0670 C   0  0  0  0  0  0  0  0  0  0  0  0
    3.4040    6.2470    0.1860 C   0  0  0  0  0  0  0  0  0  0  0  0
    4.6150    3.7000    2.7250 S   0  0  0  0  0  0  0  0  0  0  0  0
    4.7020    5.1550    1.9850 N   0  0  0  0  0  0  0  0  0  0  0  0
    4.1680    7.5320    0.1440 C   0  0  1  0  0  0  0  0  0  0  0  0
    5.3350    7.9720    1.4190 B   0  0  0  0  0  0  0  0  0  0  0  0
    4.1110    8.5830   -0.8880 C   0  0  0  0  0  0  0  0  0  0  0  0
    5.7340    9.4640    0.5810 C   0  0  0  0  0  0  0  0  0  0  0  0
    3.3260    8.5500   -1.9850 N   0  0  0  0  0  0  0  0  0  0  0  0
    4.9690    9.6630   -0.6420 C   0  0  0  0  0  0  0  0  0  0  0  0
    6.7400   10.3830    1.0610 C   0  0  0  0  0  0  0  0  0  0  0  0
    3.3810    9.6230   -2.8010 C   0  0  0  0  0  0  0  0  0  0  0  0
    5.0110   10.7540   -1.4350 N   0  0  0  0  0  0  0  0  0  0  0  0
    7.4140   11.2830    0.2670 C   0  0  0  0  0  0  0  0  0  0  0  0
    7.2400   10.4860    2.7450 S   0  0  0  0  0  0  0  0  0  0  0  0
    4.2120   10.7260   -2.5220 C   0  0  0  0  0  0  0  0  0  0  0  0
    8.3400   12.0750    1.0070 C   0  0  0  0  0  0  0  0  0  0  0  0
    8.3670   11.7790    2.3480 C   0  0  0  0  0  0  0  0  0  0  0  0
   -1.2450   -0.4820   -0.2390 H   0  0  0  0  0  0  0  0  0  0  0  0
    1.2400   -0.8320   -0.0870 H   0  0  0  0  0  0  0  0  0  0  0  0
   -2.1400    1.8680   -0.2230 H   0  0  0  0  0  0  0  0  0  0  0  0
    2.7180    1.1780    0.0710 H   0  0  0  0  0  0  0  0  0  0  0  0
    1.9530    6.7430   -1.3870 H   0  0  0  0  0  0  0  0  0  0  0  0
    2.7440    9.6040   -3.6840 H   0  0  0  0  0  0  0  0  0  0  0  0
    7.3030   11.3840   -0.8040 H   0  0  0  0  0  0  0  0  0  0  0  0
    4.2420   11.5940   -3.1790 H   0  0  0  0  0  0  0  0  0  0  0  0
    8.9640   12.8330    0.5460 H   0  0  0  0  0  0  0  0  0  0  0  0
    8.9720   12.2240    3.1260 H   0  0  0  0  0  0  0  0  0  0  0  0
  1  3  2  0  0  0  0
  1  2  1  0  0  0  0
  2  4  2  0  0  0  0
  3  5  1  0  0  0  0
  4  6  1  0  0  0  0
  4 33  1  0  0  0  0
  5  6  2  0  0  0  0
  6  7  1  0  0  0  0
  7  9  1  0  0  0  0
  8 10  1  0  0  0  0
  8  7  2  0  0  0  0
  9 12  1  0  0  0  0
  9 11  2  0  0  0  0
 10 13  2  0  0  0  0
 11 14  1  0  0  0  0
 12 15  2  0  0  0  0
 13 12  1  0  0  0  0
 15 14  1  0  0  0  0
 16 13  1  6  0  0  0
 16 17  1  0  0  0  0
 18 21  1  0  0  0  0
 18 16  1  0  0  0  0
 19 22  1  0  0  0  0
 19 17  2  0  0  0  0
 20 18  2  0  0  0  0
 21 19  1  0  0  0  0
 22 26  1  0  0  0  0
 23 27  2  0  0  0  0
 23 20  1  0  0  0  0
 24 21  2  0  0  0  0
 25 28  1  0  0  0  0
 25 22  2  0  0  0  0
 27 24  1  0  0  0  0
 28 29  2  0  0  0  0
 29 26  1  0  0  0  0
 29 39  1  0  0  0  0
 30  1  1  0  0  0  0
 31  2  1  0  0  0  0
 32  3  1  0  0  0  0
 34 10  1  0  0  0  0
 35 23  1  0  0  0  0
 36 25  1  0  0  0  0
 37 27  1  0  0  0  0
 38 28  1  0  0  0  0
M  END
$$$$
scan_sander_basal_param/min_pdbs/min_pdb_C169_150.pdb
 OpenBabel10021702073D

 39 44  0  0  1  0  0  0  0  0999 V2000
   -0.5860    0.3650   -0.2510 C   0  0  0  0  0  0  0  0  0  0  0  0
    0.7430    0.1510    0.1360 C   0  0  0  0  0  0  0  0  0  0  0  0
   -1.0140    1.6780   -0.4940 C   0  0  0  0  0  0  0  0  0  0  0  0
    1.5860    1.2640    0.2680 C   0  0  0  0  0  0  0  0  0  0  0  0
   -0.1990    2.7400   -0.3640 N   0  0  0  0  0  0  0  0  0  0  0  0
    1.0900    2.5720    0.0180 C   0  0  0  0  0  0  0  0  0  0  0  0
    1.9360    3.8210    0.1370 C   0  0  0  0  0  0  0  0  0  0  0  0
    1.6100    4.8540   -0.6700 N   0  0  0  0  0  0  0  0  0  0  0  0
    3.0200    3.9760    1.0400 C   0  0  0  0  0  0  0  0  0  0  0  0
    2.3150    6.0010   -0.6450 C   0  0  0  0  0  0  0  0  0  0  0  0
    3.4210    3.0430    1.9310 N   0  0  0  0  0  0  0  0  0  0  0  0
    3.7440    5.1680    1.0750 C   0  0  0  0  0  0  0  0  0  0  0  0
    3.4150    6.2490    0.2110 C   0  0  0  0  0  0  0  0  0  0  0  0
    4.6870    3.7040    2.7190 S   0  0  0  0  0  0  0  0  0  0  0  0
    4.7490    5.1580    1.9790 N   0  0  0  0  0  0  0  0  0  0  0  0
    4.1710    7.5390    0.1630 C   0  0  1  0  0  0  0  0  0  0  0  0
    5.3630    7.9770    1.4160 B   0  0  0  0  0  0  0  0  0  0  0  0
    4.0860    8.5980   -0.8590 C   0  0  0  0  0  0  0  0  0  0  0  0
    5.7450    9.4700    0.5730 C   0  0  0  0  0  0  0  0  0  0  0  0
    3.2700    8.5730   -1.9340 N   0  0  0  0  0  0  0  0  0  0  0  0
    4.9490    9.6770   -0.6270 C   0  0  0  0  0  0  0  0  0  0  0  0
    6.7680   10.3840    1.0280 C   0  0  0  0  0  0  0  0  0  0  0  0
    3.3020    9.6530   -2.7430 C   0  0  0  0  0  0  0  0  0  0  0  0
    4.9680   10.7750   -1.4120 N   0  0  0  0  0  0  0  0  0  0  0  0
    7.4230   11.2830    0.2200 C   0  0  0  0  0  0  0  0  0  0  0  0
    7.3150   10.4780    2.6980 S   0  0  0  0  0  0  0  0  0  0  0  0
    4.1390   10.7550   -2.4770 C   0  0  0  0  0  0  0  0  0  0  0  0
    8.3730   12.0680    0.9350 C   0  0  0  0  0  0  0  0  0  0  0  0
    8.4370   11.7670    2.2740 C   0  0  0  0  0  0  0  0  0  0  0  0
   -1.2720   -0.4690   -0.3680 H   0  0  0  0  0  0  0  0  0  0  0  0
    1.1140   -0.8530    0.3220 H   0  0  0  0  0  0  0  0  0  0  0  0
   -2.0370    1.8870   -0.8030 H   0  0  0  0  0  0  0  0  0  0  0  0
    2.6230    1.1080    0.5390 H   0  0  0  0  0  0  0  0  0  0  0  0
    1.9260    6.7500   -1.3230 H   0  0  0  0  0  0  0  0  0  0  0  0
    2.6410    9.6410   -3.6080 H   0  0  0  0  0  0  0  0  0  0  0  0
    7.2830   11.3880   -0.8480 H   0  0  0  0  0  0  0  0  0  0  0  0
    4.1500   11.6280   -3.1270 H   0  0  0  0  0  0  0  0  0  0  0  0
    8.9880   12.8260    0.4590 H   0  0  0  0  0  0  0  0  0  0  0  0
    9.0650   12.2070    3.0370 H   0  0  0  0  0  0  0  0  0  0  0  0
  1  2  2  0  0  0  0
  2  4  1  0  0  0  0
  2 31  1  0  0  0  0
  3  5  2  0  0  0  0
  3  1  1  0  0  0  0
  4 33  1  0  0  0  0
  5  6  1  0  0  0  0
  6  7  1  0  0  0  0
  6  4  2  0  0  0  0
  7  9  1  0  0  0  0
  8 10  1  0  0  0  0
  8  7  2  0  0  0  0
  9 12  1  0  0  0  0
  9 11  2  0  0  0  0
 10 13  2  0  0  0  0
 11 14  1  0  0  0  0
 12 15  2  0  0  0  0
 13 12  1  0  0  0  0
 15 14  1  0  0  0  0
 16 13  1  6  0  0  0
 16 17  1  0  0  0  0
 18 21  1  0  0  0  0
 18 16  1  0  0  0  0
 19 22  1  0  0  0  0
 19 17  2  0  0  0  0
 20 18  2  0  0  0  0
 21 19  1  0  0  0  0
 22 26  1  0  0  0  0
 23 27  2  0  0  0  0
 23 20  1  0  0  0  0
 24 21  2  0  0  0  0
 25 28  1  0  0  0  0
 25 22  2  0  0  0  0
 27 24  1  0  0  0  0
 28 29  2  0  0  0  0
 29 26  1  0  0  0  0
 29 39  1  0  0  0  0
 30  1  1  0  0  0  0
 32  3  1  0  0  0  0
 34 10  1  0  0  0  0
 35 23  1  0  0  0  0
 36 25  1  0  0  0  0
 37 27  1  0  0  0  0
 38 28  1  0  0  0  0
M  END
$$$$
scan_sander_basal_param/min_pdbs/min_pdb_C169_165.pdb
 OpenBabel10021702073D

 39 44  0  0  1  0  0  0  0  0999 V2000
   -0.6220    0.3800   -0.3240 C   0  0  0  0  0  0  0  0  0  0  0  0
    0.5940    0.1680    0.3360 C   0  0  0  0  0  0  0  0  0  0  0  0
   -0.9140    1.6680   -0.7900 C   0  0  0  0  0  0  0  0  0  0  0  0
    1.4630    1.2570    0.5070 C   0  0  0  0  0  0  0  0  0  0  0  0
   -0.0760    2.7050   -0.6200 N   0  0  0  0  0  0  0  0  0  0  0  0
    1.1080    2.5480    0.0230 C   0  0  0  0  0  0  0  0  0  0  0  0
    1.9740    3.7930    0.1570 C   0  0  0  0  0  0  0  0  0  0  0  0
    1.6300    4.8430   -0.6240 N   0  0  0  0  0  0  0  0  0  0  0  0
    3.0870    3.9470    1.0300 C   0  0  0  0  0  0  0  0  0  0  0  0
    2.3290    5.9930   -0.6060 C   0  0  0  0  0  0  0  0  0  0  0  0
    3.5300    3.0120    1.9000 N   0  0  0  0  0  0  0  0  0  0  0  0
    3.8070    5.1430    1.0580 C   0  0  0  0  0  0  0  0  0  0  0  0
    3.4500    6.2350    0.2200 C   0  0  0  0  0  0  0  0  0  0  0  0
    4.8170    3.6710    2.6540 S   0  0  0  0  0  0  0  0  0  0  0  0
    4.8410    5.1320    1.9290 N   0  0  0  0  0  0  0  0  0  0  0  0
    4.1980    7.5300    0.1680 C   0  0  1  0  0  0  0  0  0  0  0  0
    5.4230    7.9600    1.3900 B   0  0  0  0  0  0  0  0  0  0  0  0
    4.0770    8.6020   -0.8380 C   0  0  0  0  0  0  0  0  0  0  0  0
    5.7680    9.4700    0.5600 C   0  0  0  0  0  0  0  0  0  0  0  0
    3.2330    8.5840   -1.8910 N   0  0  0  0  0  0  0  0  0  0  0  0
    4.9370    9.6850   -0.6160 C   0  0  0  0  0  0  0  0  0  0  0  0
    6.7920   10.3870    1.0010 C   0  0  0  0  0  0  0  0  0  0  0  0
    3.2350    9.6740   -2.6870 C   0  0  0  0  0  0  0  0  0  0  0  0
    4.9260   10.7930   -1.3870 N   0  0  0  0  0  0  0  0  0  0  0  0
    7.4160   11.3060    0.1890 C   0  0  0  0  0  0  0  0  0  0  0  0
    7.3830   10.4630    2.6570 S   0  0  0  0  0  0  0  0  0  0  0  0
    4.0700   10.7790   -2.4290 C   0  0  0  0  0  0  0  0  0  0  0  0
    8.3770   12.0900    0.8920 C   0  0  0  0  0  0  0  0  0  0  0  0
    8.4790   11.7700    2.2230 C   0  0  0  0  0  0  0  0  0  0  0  0
   -1.3210   -0.4350   -0.4790 H   0  0  0  0  0  0  0  0  0  0  0  0
    0.8630   -0.8200    0.7010 H   0  0  0  0  0  0  0  0  0  0  0  0
   -1.8460    1.8780   -1.3140 H   0  0  0  0  0  0  0  0  0  0  0  0
    2.4120    1.0740    0.9900 H   0  0  0  0  0  0  0  0  0  0  0  0
    1.9160    6.7480   -1.2630 H   0  0  0  0  0  0  0  0  0  0  0  0
    2.5510    9.6670   -3.5340 H   0  0  0  0  0  0  0  0  0  0  0  0
    7.2470   11.4250   -0.8730 H   0  0  0  0  0  0  0  0  0  0  0  0
    4.0560   11.6610   -3.0680 H   0  0  0  0  0  0  0  0  0  0  0  0
    8.9710   12.8610    0.4110 H   0  0  0  0  0  0  0  0  0  0  0  0
    9.1230   12.2050    2.9760 H   0  0  0  0  0  0  0  0  0  0  0  0
  1  2  2  0  0  0  0
  2  4  1  0  0  0  0
  2 31  1  0  0  0  0
  3  5  2  0  0  0  0
  3  1  1  0  0  0  0
  4 33  1  0  0  0  0
  5  6  1  0  0  0  0
  6  7  1  0  0  0  0
  6  4  2  0  0  0  0
  7  9  1  0  0  0  0
  8 10  1  0  0  0  0
  8  7  2  0  0  0  0
  9 12  1  0  0  0  0
  9 11  2  0  0  0  0
 10 13  2  0  0  0  0
 11 14  1  0  0  0  0
 12 15  2  0  0  0  0
 13 12  1  0  0  0  0
 15 14  1  0  0  0  0
 16 13  1  6  0  0  0
 16 17  1  0  0  0  0
 18 21  1  0  0  0  0
 18 16  1  0  0  0  0
 19 22  1  0  0  0  0
 19 17  2  0  0  0  0
 20 18  2  0  0  0  0
 21 19  1  0  0  0  0
 22 26  1  0  0  0  0
 23 27  2  0  0  0  0
 23 20  1  0  0  0  0
 24 21  2  0  0  0  0
 25 28  1  0  0  0  0
 25 22  2  0  0  0  0
 27 24  1  0  0  0  0
 28 29  2  0  0  0  0
 29 26  1  0  0  0  0
 29 39  1  0  0  0  0
 30  1  1  0  0  0  0
 32  3  1  0  0  0  0
 34 10  1  0  0  0  0
 35 23  1  0  0  0  0
 36 25  1  0  0  0  0
 37 27  1  0  0  0  0
 38 28  1  0  0  0  0
M  END
$$$$
scan_sander_basal_param/min_pdbs/min_pdb_C169_180.pdb
 OpenBabel10021702073D

 39 44  0  0  1  0  0  0  0  0999 V2000
   -0.6290    0.3830   -0.3680 C   0  0  0  0  0  0  0  0  0  0  0  0
    0.4310    0.2300    0.5330 C   0  0  0  0  0  0  0  0  0  0  0  0
   -0.7680    1.6060   -1.0330 C   0  0  0  0  0  0  0  0  0  0  0  0
    1.3060    1.3090    0.7300 C   0  0  0  0  0  0  0  0  0  0  0  0
    0.0770    2.6340   -0.8370 N   0  0  0  0  0  0  0  0  0  0  0  0
    1.1200    2.5340    0.0260 C   0  0  0  0  0  0  0  0  0  0  0  0
    2.0030    3.7730    0.1550 C   0  0  0  0  0  0  0  0  0  0  0  0
    1.6450    4.8320   -0.6070 N   0  0  0  0  0  0  0  0  0  0  0  0
    3.1490    3.9140    0.9900 C   0  0  0  0  0  0  0  0  0  0  0  0
    2.3410    5.9840   -0.5930 C   0  0  0  0  0  0  0  0  0  0  0  0
    3.6480    2.9570    1.8030 N   0  0  0  0  0  0  0  0  0  0  0  0
    3.8690    5.1120    1.0110 C   0  0  0  0  0  0  0  0  0  0  0  0
    3.4830    6.2180    0.2050 C   0  0  0  0  0  0  0  0  0  0  0  0
    4.9640    3.6050    2.5160 S   0  0  0  0  0  0  0  0  0  0  0  0
    4.9410    5.0870    1.8340 N   0  0  0  0  0  0  0  0  0  0  0  0
    4.2200    7.5200    0.1590 C   0  0  1  0  0  0  0  0  0  0  0  0
    5.4760    7.9340    1.3560 B   0  0  0  0  0  0  0  0  0  0  0  0
    4.0640    8.6100   -0.8210 C   0  0  0  0  0  0  0  0  0  0  0  0
    5.7850    9.4640    0.5490 C   0  0  0  0  0  0  0  0  0  0  0  0
    3.1930    8.6060   -1.8520 N   0  0  0  0  0  0  0  0  0  0  0  0
    4.9220    9.6950   -0.6000 C   0  0  0  0  0  0  0  0  0  0  0  0
    6.8130   10.3810    0.9830 C   0  0  0  0  0  0  0  0  0  0  0  0
    3.1660    9.7120   -2.6260 C   0  0  0  0  0  0  0  0  0  0  0  0
    4.8820   10.8180   -1.3480 N   0  0  0  0  0  0  0  0  0  0  0  0
    7.4070   11.3220    0.1740 C   0  0  0  0  0  0  0  0  0  0  0  0
    7.4450   10.4280    2.6240 S   0  0  0  0  0  0  0  0  0  0  0  0
    3.9990   10.8180   -2.3680 C   0  0  0  0  0  0  0  0  0  0  0  0
    8.3790   12.1010    0.8680 C   0  0  0  0  0  0  0  0  0  0  0  0
    8.5180   11.7550    2.1900 C   0  0  0  0  0  0  0  0  0  0  0  0
   -1.3280   -0.4280   -0.5490 H   0  0  0  0  0  0  0  0  0  0  0  0
    0.5730   -0.7040    1.0690 H   0  0  0  0  0  0  0  0  0  0  0  0
   -1.5770    1.7720   -1.7430 H   0  0  0  0  0  0  0  0  0  0  0  0
    2.1160    1.1690    1.4290 H   0  0  0  0  0  0  0  0  0  0  0  0
    1.9090    6.7450   -1.2300 H   0  0  0  0  0  0  0  0  0  0  0  0
    2.4600    9.7160   -3.4550 H   0  0  0  0  0  0  0  0  0  0  0  0
    7.2090   11.4620   -0.8800 H   0  0  0  0  0  0  0  0  0  0  0  0
    3.9610   11.7120   -2.9890 H   0  0  0  0  0  0  0  0  0  0  0  0
    8.9530   12.8880    0.3890 H   0  0  0  0  0  0  0  0  0  0  0  0
    9.1770   12.1800    2.9350 H   0  0  0  0  0  0  0  0  0  0  0  0
  1  2  2  0  0  0  0
  2  4  1  0  0  0  0
  2 31  1  0  0  0  0
  3  5  2  0  0  0  0
  3  1  1  0  0  0  0
  4 33  1  0  0  0  0
  5  6  1  0  0  0  0
  6  7  1  0  0  0  0
  6  4  2  0  0  0  0
  7  9  1  0  0  0  0
  8 10  1  0  0  0  0
  8  7  2  0  0  0  0
  9 12  1  0  0  0  0
  9 11  2  0  0  0  0
 10 13  2  0  0  0  0
 11 14  1  0  0  0  0
 12 15  2  0  0  0  0
 13 12  1  0  0  0  0
 15 14  1  0  0  0  0
 16 13  1  6  0  0  0
 16 17  1  0  0  0  0
 18 21  1  0  0  0  0
 18 16  1  0  0  0  0
 19 22  1  0  0  0  0
 19 17  2  0  0  0  0
 20 18  2  0  0  0  0
 21 19  1  0  0  0  0
 22 26  1  0  0  0  0
 23 27  2  0  0  0  0
 23 20  1  0  0  0  0
 24 21  2  0  0  0  0
 25 28  1  0  0  0  0
 25 22  2  0  0  0  0
 27 24  1  0  0  0  0
 28 29  2  0  0  0  0
 29 26  1  0  0  0  0
 29 39  1  0  0  0  0
 30  1  1  0  0  0  0
 32  3  1  0  0  0  0
 34 10  1  0  0  0  0
 35 23  1  0  0  0  0
 36 25  1  0  0  0  0
 37 27  1  0  0  0  0
 38 28  1  0  0  0  0
M  END
$$$$
scan_sander_basal_param/min_pdbs/min_pdb_C169_195.pdb
 OpenBabel10021702073D

 39 44  0  0  1  0  0  0  0  0999 V2000
   -0.5820    0.3550   -0.3660 C   0  0  0  0  0  0  0  0  0  0  0  0
    0.2970    0.3380    0.7220 C   0  0  0  0  0  0  0  0  0  0  0  0
   -0.5770    1.4700   -1.2130 C   0  0  0  0  0  0  0  0  0  0  0  0
    1.1500    1.4360    0.9120 C   0  0  0  0  0  0  0  0  0  0  0  0
    0.2450    2.5170   -1.0230 N   0  0  0  0  0  0  0  0  0  0  0  0
    1.1220    2.5380    0.0110 C   0  0  0  0  0  0  0  0  0  0  0  0
    2.0040    3.7730    0.1240 C   0  0  0  0  0  0  0  0  0  0  0  0
    1.6300    4.8400   -0.6190 N   0  0  0  0  0  0  0  0  0  0  0  0
    3.1780    3.8910    0.9200 C   0  0  0  0  0  0  0  0  0  0  0  0
    2.3290    5.9900   -0.6000 C   0  0  0  0  0  0  0  0  0  0  0  0
    3.7150    2.9000    1.6660 N   0  0  0  0  0  0  0  0  0  0  0  0
    3.9020    5.0850    0.9430 C   0  0  0  0  0  0  0  0  0  0  0  0
    3.4920    6.2080    0.1750 C   0  0  0  0  0  0  0  0  0  0  0  0
    5.0590    3.5260    2.3450 S   0  0  0  0  0  0  0  0  0  0  0  0
    5.0070    5.0320    1.7200 N   0  0  0  0  0  0  0  0  0  0  0  0
    4.2250    7.5120    0.1410 C   0  0  1  0  0  0  0  0  0  0  0  0
    5.5100    7.8980    1.3160 B   0  0  0  0  0  0  0  0  0  0  0  0
    4.0430    8.6260   -0.8070 C   0  0  0  0  0  0  0  0  0  0  0  0
    5.7970    9.4490    0.5400 C   0  0  0  0  0  0  0  0  0  0  0  0
    3.1450    8.6470   -1.8150 N   0  0  0  0  0  0  0  0  0  0  0  0
    4.9040    9.7070   -0.5810 C   0  0  0  0  0  0  0  0  0  0  0  0
    6.8340   10.3570    0.9700 C   0  0  0  0  0  0  0  0  0  0  0  0
    3.0960    9.7720   -2.5590 C   0  0  0  0  0  0  0  0  0  0  0  0
    4.8440   10.8490   -1.2990 N   0  0  0  0  0  0  0  0  0  0  0  0
    7.4070   11.3190    0.1700 C   0  0  0  0  0  0  0  0  0  0  0  0
    7.5080   10.3640    2.5950 S   0  0  0  0  0  0  0  0  0  0  0  0
    3.9340   10.8730   -2.2950 C   0  0  0  0  0  0  0  0  0  0  0  0
    8.3940   12.0820    0.8580 C   0  0  0  0  0  0  0  0  0  0  0  0
    8.5680   11.7030    2.1670 C   0  0  0  0  0  0  0  0  0  0  0  0
   -1.2600   -0.4730   -0.5480 H   0  0  0  0  0  0  0  0  0  0  0  0
    0.3140   -0.5040    1.4100 H   0  0  0  0  0  0  0  0  0  0  0  0
   -1.2480    1.5290   -2.0690 H   0  0  0  0  0  0  0  0  0  0  0  0
    1.8030    1.4260    1.7730 H   0  0  0  0  0  0  0  0  0  0  0  0
    1.8830    6.7640   -1.2120 H   0  0  0  0  0  0  0  0  0  0  0  0
    2.3690    9.7950   -3.3690 H   0  0  0  0  0  0  0  0  0  0  0  0
    7.1820   11.4840   -0.8750 H   0  0  0  0  0  0  0  0  0  0  0  0
    3.8800   11.7820   -2.8920 H   0  0  0  0  0  0  0  0  0  0  0  0
    8.9550   12.8820    0.3850 H   0  0  0  0  0  0  0  0  0  0  0  0
    9.2450   12.1110    2.9050 H   0  0  0  0  0  0  0  0  0  0  0  0
  1  2  2  0  0  0  0
  2  4  1  0  0  0  0
  2 31  1  0  0  0  0
  3  5  2  0  0  0  0
  3  1  1  0  0  0  0
  4 33  1  0  0  0  0
  5  6  1  0  0  0  0
  6  7  1  0  0  0  0
  6  4  2  0  0  0  0
  7  9  1  0  0  0  0
  8 10  1  0  0  0  0
  8  7  2  0  0  0  0
  9 12  1  0  0  0  0
  9 11  2  0  0  0  0
 10 13  2  0  0  0  0
 11 14  1  0  0  0  0
 12 15  2  0  0  0  0
 13 12  1  0  0  0  0
 15 14  1  0  0  0  0
 16 13  1  6  0  0  0
 16 17  1  0  0  0  0
 18 21  1  0  0  0  0
 18 16  1  0  0  0  0
 19 22  1  0  0  0  0
 19 17  2  0  0  0  0
 20 18  2  0  0  0  0
 21 19  1  0  0  0  0
 22 26  1  0  0  0  0
 23 27  2  0  0  0  0
 23 20  1  0  0  0  0
 24 21  2  0  0  0  0
 25 28  1  0  0  0  0
 25 22  2  0  0  0  0
 27 24  1  0  0  0  0
 28 29  2  0  0  0  0
 29 26  1  0  0  0  0
 29 39  1  0  0  0  0
 30  1  1  0  0  0  0
 32  3  1  0  0  0  0
 34 10  1  0  0  0  0
 35 23  1  0  0  0  0
 36 25  1  0  0  0  0
 37 27  1  0  0  0  0
 38 28  1  0  0  0  0
M  END
$$$$
scan_sander_basal_param/min_pdbs/min_pdb_C169_210.pdb
 OpenBabel10021702073D

 39 44  0  0  1  0  0  0  0  0999 V2000
   -0.5030    0.3140   -0.3470 C   0  0  0  0  0  0  0  0  0  0  0  0
    0.1790    0.4710    0.8660 C   0  0  0  0  0  0  0  0  0  0  0  0
   -0.3420    1.2900   -1.3410 C   0  0  0  0  0  0  0  0  0  0  0  0
    0.9980    1.5970    1.0300 C   0  0  0  0  0  0  0  0  0  0  0  0
    0.4460    2.3670   -1.1760 N   0  0  0  0  0  0  0  0  0  0  0  0
    1.1290    2.5460   -0.0200 C   0  0  0  0  0  0  0  0  0  0  0  0
    1.9910    3.7850    0.0810 C   0  0  0  0  0  0  0  0  0  0  0  0
    1.5910    4.8630   -0.6290 N   0  0  0  0  0  0  0  0  0  0  0  0
    3.1820    3.8760    0.8480 C   0  0  0  0  0  0  0  0  0  0  0  0
    2.2960    6.0100   -0.6010 C   0  0  0  0  0  0  0  0  0  0  0  0
    3.7250    2.8580    1.5510 N   0  0  0  0  0  0  0  0  0  0  0  0
    3.9110    5.0650    0.8800 C   0  0  0  0  0  0  0  0  0  0  0  0
    3.4810    6.2060    0.1480 C   0  0  0  0  0  0  0  0  0  0  0  0
    5.0930    3.4590    2.2080 S   0  0  0  0  0  0  0  0  0  0  0  0
    5.0350    4.9840    1.6260 N   0  0  0  0  0  0  0  0  0  0  0  0
    4.2180    7.5080    0.1260 C   0  0  1  0  0  0  0  0  0  0  0  0
    5.5360    7.8600    1.2750 B   0  0  0  0  0  0  0  0  0  0  0  0
    4.0150    8.6450   -0.7900 C   0  0  0  0  0  0  0  0  0  0  0  0
    5.8060    9.4290    0.5310 C   0  0  0  0  0  0  0  0  0  0  0  0
    3.0910    8.6930   -1.7720 N   0  0  0  0  0  0  0  0  0  0  0  0
    4.8860    9.7180   -0.5590 C   0  0  0  0  0  0  0  0  0  0  0  0
    6.8570   10.3250    0.9570 C   0  0  0  0  0  0  0  0  0  0  0  0
    3.0270    9.8360   -2.4880 C   0  0  0  0  0  0  0  0  0  0  0  0
    4.8100   10.8770   -1.2480 N   0  0  0  0  0  0  0  0  0  0  0  0
    7.4110   11.3050    0.1680 C   0  0  0  0  0  0  0  0  0  0  0  0
    7.5720   10.2890    2.5640 S   0  0  0  0  0  0  0  0  0  0  0  0
    3.8760   10.9270   -2.2190 C   0  0  0  0  0  0  0  0  0  0  0  0
    8.4180   12.0490    0.8490 C   0  0  0  0  0  0  0  0  0  0  0  0
    8.6240   11.6370    2.1430 C   0  0  0  0  0  0  0  0  0  0  0  0
   -1.1490   -0.5420   -0.5160 H   0  0  0  0  0  0  0  0  0  0  0  0
    0.0700   -0.2590    1.6640 H   0  0  0  0  0  0  0  0  0  0  0  0
   -0.8590    1.2090   -2.2960 H   0  0  0  0  0  0  0  0  0  0  0  0
    1.5080    1.7430    1.9750 H   0  0  0  0  0  0  0  0  0  0  0  0
    1.8380    6.8000   -1.1810 H   0  0  0  0  0  0  0  0  0  0  0  0
    2.2790    9.8810   -3.2780 H   0  0  0  0  0  0  0  0  0  0  0  0
    7.1600   11.4980   -0.8670 H   0  0  0  0  0  0  0  0  0  0  0  0
    3.8090   11.8510   -2.7920 H   0  0  0  0  0  0  0  0  0  0  0  0
    8.9680   12.8590    0.3810 H   0  0  0  0  0  0  0  0  0  0  0  0
    9.3210   12.0250    2.8740 H   0  0  0  0  0  0  0  0  0  0  0  0
  1  2  2  0  0  0  0
  2  4  1  0  0  0  0
  2 31  1  0  0  0  0
  3  5  2  0  0  0  0
  3  1  1  0  0  0  0
  4 33  1  0  0  0  0
  5  6  1  0  0  0  0
  6  7  1  0  0  0  0
  6  4  2  0  0  0  0
  7  9  1  0  0  0  0
  8 10  1  0  0  0  0
  8  7  2  0  0  0  0
  9 12  1  0  0  0  0
  9 11  2  0  0  0  0
 10 13  2  0  0  0  0
 11 14  1  0  0  0  0
 12 15  2  0  0  0  0
 13 12  1  0  0  0  0
 15 14  1  0  0  0  0
 16 13  1  6  0  0  0
 16 17  1  0  0  0  0
 18 21  1  0  0  0  0
 18 16  1  0  0  0  0
 19 22  1  0  0  0  0
 19 17  2  0  0  0  0
 20 18  2  0  0  0  0
 21 19  1  0  0  0  0
 22 26  1  0  0  0  0
 23 27  2  0  0  0  0
 23 20  1  0  0  0  0
 24 21  2  0  0  0  0
 25 28  1  0  0  0  0
 25 22  2  0  0  0  0
 27 24  1  0  0  0  0
 28 29  2  0  0  0  0
 29 26  1  0  0  0  0
 29 39  1  0  0  0  0
 30  1  1  0  0  0  0
 32  3  1  0  0  0  0
 34 10  1  0  0  0  0
 35 23  1  0  0  0  0
 36 25  1  0  0  0  0
 37 27  1  0  0  0  0
 38 28  1  0  0  0  0
M  END
$$$$
scan_sander_basal_param/min_pdbs/min_pdb_C169_225.pdb
 OpenBabel10021702073D

 39 44  0  0  1  0  0  0  0  0999 V2000
   -0.4280    0.2790   -0.3260 C   0  0  0  0  0  0  0  0  0  0  0  0
    0.0430    0.6120    0.9510 C   0  0  0  0  0  0  0  0  0  0  0  0
   -0.0890    1.1060   -1.4080 C   0  0  0  0  0  0  0  0  0  0  0  0
    0.8340    1.7620    1.0890 C   0  0  0  0  0  0  0  0  0  0  0  0
    0.6720    2.2070   -1.2700 N   0  0  0  0  0  0  0  0  0  0  0  0
    1.1410    2.5500   -0.0490 C   0  0  0  0  0  0  0  0  0  0  0  0
    1.9850    3.7920    0.0410 C   0  0  0  0  0  0  0  0  0  0  0  0
    1.5530    4.8840   -0.6240 N   0  0  0  0  0  0  0  0  0  0  0  0
    3.1920    3.8590    0.7770 C   0  0  0  0  0  0  0  0  0  0  0  0
    2.2630    6.0290   -0.5870 C   0  0  0  0  0  0  0  0  0  0  0  0
    3.7320    2.8200    1.4510 N   0  0  0  0  0  0  0  0  0  0  0  0
    3.9240    5.0430    0.8190 C   0  0  0  0  0  0  0  0  0  0  0  0
    3.4740    6.2020    0.1280 C   0  0  0  0  0  0  0  0  0  0  0  0
    5.1200    3.3990    2.0860 S   0  0  0  0  0  0  0  0  0  0  0  0
    5.0650    4.9380    1.5370 N   0  0  0  0  0  0  0  0  0  0  0  0
    4.2160    7.5010    0.1130 C   0  0  1  0  0  0  0  0  0  0  0  0
    5.5720    7.8200    1.2270 B   0  0  0  0  0  0  0  0  0  0  0  0
    3.9890    8.6610   -0.7680 C   0  0  0  0  0  0  0  0  0  0  0  0
    5.8190    9.4090    0.5190 C   0  0  0  0  0  0  0  0  0  0  0  0
    3.0380    8.7330   -1.7230 N   0  0  0  0  0  0  0  0  0  0  0  0
    4.8670    9.7260   -0.5370 C   0  0  0  0  0  0  0  0  0  0  0  0
    6.8810   10.2940    0.9400 C   0  0  0  0  0  0  0  0  0  0  0  0
    2.9550    9.8930   -2.4080 C   0  0  0  0  0  0  0  0  0  0  0  0
    4.7750   10.9010   -1.1950 N   0  0  0  0  0  0  0  0  0  0  0  0
    7.4120   11.2970    0.1630 C   0  0  0  0  0  0  0  0  0  0  0  0
    7.6410   10.2150    2.5240 S   0  0  0  0  0  0  0  0  0  0  0  0
    3.8130   10.9770   -2.1380 C   0  0  0  0  0  0  0  0  0  0  0  0
    8.4360   12.0240    0.8360 C   0  0  0  0  0  0  0  0  0  0  0  0
    8.6790   11.5760    2.1120 C   0  0  0  0  0  0  0  0  0  0  0  0
   -1.0450   -0.6010   -0.4780 H   0  0  0  0  0  0  0  0  0  0  0  0
   -0.2020   -0.0030    1.8140 H   0  0  0  0  0  0  0  0  0  0  0  0
   -0.4370    0.8810   -2.4160 H   0  0  0  0  0  0  0  0  0  0  0  0
    1.2060    2.0490    2.0670 H   0  0  0  0  0  0  0  0  0  0  0  0
    1.7890    6.8360   -1.1300 H   0  0  0  0  0  0  0  0  0  0  0  0
    2.1860    9.9580   -3.1760 H   0  0  0  0  0  0  0  0  0  0  0  0
    7.1320   11.5180   -0.8590 H   0  0  0  0  0  0  0  0  0  0  0  0
    3.7320   11.9140   -2.6860 H   0  0  0  0  0  0  0  0  0  0  0  0
    8.9720   12.8480    0.3760 H   0  0  0  0  0  0  0  0  0  0  0  0
    9.3960   11.9450    2.8330 H   0  0  0  0  0  0  0  0  0  0  0  0
  1  2  2  0  0  0  0
  2  4  1  0  0  0  0
  2 31  1  0  0  0  0
  3  5  2  0  0  0  0
  3  1  1  0  0  0  0
  4 33  1  0  0  0  0
  5  6  1  0  0  0  0
  6  7  1  0  0  0  0
  6  4  2  0  0  0  0
  7  9  1  0  0  0  0
  8 10  1  0  0  0  0
  8  7  2  0  0  0  0
  9 12  1  0  0  0  0
  9 11  2  0  0  0  0
 10 13  2  0  0  0  0
 11 14  1  0  0  0  0
 12 15  2  0  0  0  0
 13 12  1  0  0  0  0
 15 14  1  0  0  0  0
 16 13  1  6  0  0  0
 16 17  1  0  0  0  0
 18 21  1  0  0  0  0
 18 16  1  0  0  0  0
 19 22  1  0  0  0  0
 19 17  2  0  0  0  0
 20 18  2  0  0  0  0
 21 19  1  0  0  0  0
 22 26  1  0  0  0  0
 23 27  2  0  0  0  0
 23 20  1  0  0  0  0
 24 21  2  0  0  0  0
 25 28  1  0  0  0  0
 25 22  2  0  0  0  0
 27 24  1  0  0  0  0
 28 29  2  0  0  0  0
 29 26  1  0  0  0  0
 29 39  1  0  0  0  0
 30  1  1  0  0  0  0
 32  3  1  0  0  0  0
 34 10  1  0  0  0  0
 35 23  1  0  0  0  0
 36 25  1  0  0  0  0
 37 27  1  0  0  0  0
 38 28  1  0  0  0  0
M  END
$$$$
scan_sander_basal_param/min_pdbs/min_pdb_C169_240.pdb
 OpenBabel10021702073D

 39 44  0  0  1  0  0  0  0  0999 V2000
   -0.2550    0.1880   -0.3990 C   0  0  0  0  0  0  0  0  0  0  0  0
   -0.7430    1.1420    0.5050 C   0  0  0  0  0  0  0  0  0  0  0  0
    0.9120    0.4760   -1.1240 C   0  0  0  0  0  0  0  0  0  0  0  0
   -0.0390    2.3470    0.6420 C   0  0  0  0  0  0  0  0  0  0  0  0
    1.5850    1.6330   -0.9880 N   0  0  0  0  0  0  0  0  0  0  0  0
    1.1310    2.5680   -0.1240 C   0  0  0  0  0  0  0  0  0  0  0  0
    1.9190    3.8370   -0.0070 C   0  0  0  0  0  0  0  0  0  0  0  0
    2.0620    4.5890   -1.1170 N   0  0  0  0  0  0  0  0  0  0  0  0
    2.4960    4.2630    1.2090 C   0  0  0  0  0  0  0  0  0  0  0  0
    2.7660    5.7380   -1.0660 C   0  0  0  0  0  0  0  0  0  0  0  0
    2.4110    3.5750    2.3680 N   0  0  0  0  0  0  0  0  0  0  0  0
    3.2180    5.4510    1.2650 C   0  0  0  0  0  0  0  0  0  0  0  0
    3.3830    6.2550    0.1020 C   0  0  0  0  0  0  0  0  0  0  0  0
    3.2590    4.4620    3.4460 S   0  0  0  0  0  0  0  0  0  0  0  0
    3.7260    5.7050    2.4910 N   0  0  0  0  0  0  0  0  0  0  0  0
    4.1660    7.5280    0.0780 C   0  0  1  0  0  0  0  0  0  0  0  0
    4.6980    8.3300    1.5800 B   0  0  0  0  0  0  0  0  0  0  0  0
    4.6210    8.2880   -1.1010 C   0  0  0  0  0  0  0  0  0  0  0  0
    5.5190    9.5800    0.6570 C   0  0  0  0  0  0  0  0  0  0  0  0
    4.3720    7.9500   -2.3830 N   0  0  0  0  0  0  0  0  0  0  0  0
    5.3610    9.4330   -0.7830 C   0  0  0  0  0  0  0  0  0  0  0  0
    6.2890   10.6320    1.2790 C   0  0  0  0  0  0  0  0  0  0  0  0
    4.8360    8.7900   -3.3320 C   0  0  0  0  0  0  0  0  0  0  0  0
    5.8040   10.2970   -1.7210 N   0  0  0  0  0  0  0  0  0  0  0  0
    7.2970   11.3300    0.6570 C   0  0  0  0  0  0  0  0  0  0  0  0
    6.0350   11.1750    2.9340 S   0  0  0  0  0  0  0  0  0  0  0  0
    5.5400    9.9640   -3.0020 C   0  0  0  0  0  0  0  0  0  0  0  0
    7.8770   12.3200    1.5020 C   0  0  0  0  0  0  0  0  0  0  0  0
    7.3130   12.3730    2.7530 C   0  0  0  0  0  0  0  0  0  0  0  0
   -0.7690   -0.7580   -0.5380 H   0  0  0  0  0  0  0  0  0  0  0  0
   -1.6440    0.9530    1.0840 H   0  0  0  0  0  0  0  0  0  0  0  0
    1.3210   -0.2420   -1.8350 H   0  0  0  0  0  0  0  0  0  0  0  0
   -0.3860    3.1080    1.3340 H   0  0  0  0  0  0  0  0  0  0  0  0
    2.7810    6.2640   -2.0120 H   0  0  0  0  0  0  0  0  0  0  0  0
    4.6330    8.5240   -4.3680 H   0  0  0  0  0  0  0  0  0  0  0  0
    7.6580   11.1540   -0.3480 H   0  0  0  0  0  0  0  0  0  0  0  0
    5.9010   10.6440   -3.7720 H   0  0  0  0  0  0  0  0  0  0  0  0
    8.6900   12.9640    1.1820 H   0  0  0  0  0  0  0  0  0  0  0  0
    7.5610   13.0240    3.5810 H   0  0  0  0  0  0  0  0  0  0  0  0
  1  2  2  0  0  0  0
  2  4  1  0  0  0  0
  2 31  1  0  0  0  0
  3  5  2  0  0  0  0
  3  1  1  0  0  0  0
  4 33  1  0  0  0  0
  5  6  1  0  0  0  0
  6  7  1  0  0  0  0
  6  4  2  0  0  0  0
  7  9  1  0  0  0  0
  8 10  1  0  0  0  0
  8  7  2  0  0  0  0
  9 12  1  0  0  0  0
  9 11  2  0  0  0  0
 10 13  2  0  0  0  0
 11 14  1  0  0  0  0
 12 15  2  0  0  0  0
 13 12  1  0  0  0  0
 15 14  1  0  0  0  0
 16 13  1  6  0  0  0
 16 17  1  0  0  0  0
 18 21  1  0  0  0  0
 18 16  1  0  0  0  0
 19 22  1  0  0  0  0
 19 17  2  0  0  0  0
 20 18  2  0  0  0  0
 21 19  1  0  0  0  0
 22 26  1  0  0  0  0
 23 27  2  0  0  0  0
 23 20  1  0  0  0  0
 24 21  2  0  0  0  0
 25 22  2  0  0  0  0
 25 28  1  0  0  0  0
 27 24  1  0  0  0  0
 28 29  2  0  0  0  0
 29 26  1  0  0  0  0
 29 39  1  0  0  0  0
 30  1  1  0  0  0  0
 32  3  1  0  0  0  0
 34 10  1  0  0  0  0
 35 23  1  0  0  0  0
 36 25  1  0  0  0  0
 37 27  1  0  0  0  0
 38 28  1  0  0  0  0
M  END
$$$$
scan_sander_basal_param/min_pdbs/min_pdb_C169_255.pdb
 OpenBabel10021702073D

 39 44  0  0  1  0  0  0  0  0999 V2000
   -0.1760    0.1460   -0.3410 C   0  0  0  0  0  0  0  0  0  0  0  0
   -0.8200    1.2050    0.3150 C   0  0  0  0  0  0  0  0  0  0  0  0
    1.1180    0.3460   -0.8480 C   0  0  0  0  0  0  0  0  0  0  0  0
   -0.1360    2.4240    0.4340 C   0  0  0  0  0  0  0  0  0  0  0  0
    1.7710    1.5170   -0.7300 N   0  0  0  0  0  0  0  0  0  0  0  0
    1.1670    2.5510   -0.1040 C   0  0  0  0  0  0  0  0  0  0  0  0
    1.9350    3.8280    0.0070 C   0  0  0  0  0  0  0  0  0  0  0  0
    2.0450    4.5900   -1.0990 N   0  0  0  0  0  0  0  0  0  0  0  0
    2.5250    4.2500    1.2160 C   0  0  0  0  0  0  0  0  0  0  0  0
    2.7360    5.7480   -1.0490 C   0  0  0  0  0  0  0  0  0  0  0  0
    2.4600    3.5530    2.3710 N   0  0  0  0  0  0  0  0  0  0  0  0
    3.2330    5.4460    1.2710 C   0  0  0  0  0  0  0  0  0  0  0  0
    3.3700    6.2610    0.1120 C   0  0  0  0  0  0  0  0  0  0  0  0
    3.3130    4.4400    3.4430 S   0  0  0  0  0  0  0  0  0  0  0  0
    3.7560    5.6960    2.4920 N   0  0  0  0  0  0  0  0  0  0  0  0
    4.1430    7.5410    0.0850 C   0  0  1  0  0  0  0  0  0  0  0  0
    4.6940    8.3340    1.5840 B   0  0  0  0  0  0  0  0  0  0  0  0
    4.5700    8.3140   -1.0950 C   0  0  0  0  0  0  0  0  0  0  0  0
    5.5080    9.5850    0.6560 C   0  0  0  0  0  0  0  0  0  0  0  0
    4.2870    7.9940   -2.3760 N   0  0  0  0  0  0  0  0  0  0  0  0
    5.3170    9.4550   -0.7810 C   0  0  0  0  0  0  0  0  0  0  0  0
    6.3030   10.6220    1.2720 C   0  0  0  0  0  0  0  0  0  0  0  0
    4.7280    8.8470   -3.3240 C   0  0  0  0  0  0  0  0  0  0  0  0
    5.7370   10.3320   -1.7180 N   0  0  0  0  0  0  0  0  0  0  0  0
    7.3040   11.3160    0.6330 C   0  0  0  0  0  0  0  0  0  0  0  0
    6.0920   11.1520    2.9360 S   0  0  0  0  0  0  0  0  0  0  0  0
    5.4410   10.0170   -2.9960 C   0  0  0  0  0  0  0  0  0  0  0  0
    7.9140   12.2910    1.4740 C   0  0  0  0  0  0  0  0  0  0  0  0
    7.3800   12.3370    2.7390 C   0  0  0  0  0  0  0  0  0  0  0  0
   -0.6680   -0.8150   -0.4560 H   0  0  0  0  0  0  0  0  0  0  0  0
   -1.8210    1.0850    0.7200 H   0  0  0  0  0  0  0  0  0  0  0  0
    1.6480   -0.4540   -1.3620 H   0  0  0  0  0  0  0  0  0  0  0  0
   -0.6000    3.2670    0.9360 H   0  0  0  0  0  0  0  0  0  0  0  0
    2.7280    6.2830   -1.9900 H   0  0  0  0  0  0  0  0  0  0  0  0
    4.4980    8.5950   -4.3590 H   0  0  0  0  0  0  0  0  0  0  0  0
    7.6390   11.1450   -0.3820 H   0  0  0  0  0  0  0  0  0  0  0  0
    5.7820   10.7070   -3.7660 H   0  0  0  0  0  0  0  0  0  0  0  0
    8.7270   12.9290    1.1420 H   0  0  0  0  0  0  0  0  0  0  0  0
    7.6550   12.9760    3.5670 H   0  0  0  0  0  0  0  0  0  0  0  0
  1  2  2  0  0  0  0
  2  4  1  0  0  0  0
  2 31  1  0  0  0  0
  3  5  2  0  0  0  0
  3  1  1  0  0  0  0
  4 33  1  0  0  0  0
  5  6  1  0  0  0  0
  6  7  1  0  0  0  0
  6  4  2  0  0  0  0
  7  9  1  0  0  0  0
  8 10  1  0  0  0  0
  8  7  2  0  0  0  0
  9 12  1  0  0  0  0
  9 11  2  0  0  0  0
 10 13  2  0  0  0  0
 11 14  1  0  0  0  0
 12 15  2  0  0  0  0
 13 12  1  0  0  0  0
 15 14  1  0  0  0  0
 16 13  1  6  0  0  0
 16 17  1  0  0  0  0
 18 21  1  0  0  0  0
 18 16  1  0  0  0  0
 19 22  1  0  0  0  0
 19 17  2  0  0  0  0
 20 18  2  0  0  0  0
 21 19  1  0  0  0  0
 22 26  1  0  0  0  0
 23 27  2  0  0  0  0
 23 20  1  0  0  0  0
 24 21  2  0  0  0  0
 25 22  2  0  0  0  0
 25 28  1  0  0  0  0
 27 24  1  0  0  0  0
 28 29  2  0  0  0  0
 29 26  1  0  0  0  0
 29 39  1  0  0  0  0
 30  1  1  0  0  0  0
 32  3  1  0  0  0  0
 34 10  1  0  0  0  0
 35 23  1  0  0  0  0
 36 25  1  0  0  0  0
 37 27  1  0  0  0  0
 38 28  1  0  0  0  0
M  END
$$$$
scan_sander_basal_param/min_pdbs/min_pdb_C169_270.pdb
 OpenBabel10021702073D

 39 44  0  0  1  0  0  0  0  0999 V2000
   -0.1590    0.1350   -0.2900 C   0  0  0  0  0  0  0  0  0  0  0  0
   -0.8900    1.2680    0.0950 C   0  0  0  0  0  0  0  0  0  0  0  0
    1.2140    0.2680   -0.5490 C   0  0  0  0  0  0  0  0  0  0  0  0
   -0.2110    2.4900    0.2030 C   0  0  0  0  0  0  0  0  0  0  0  0
    1.8630    1.4430   -0.4440 N   0  0  0  0  0  0  0  0  0  0  0  0
    1.1760    2.5460   -0.0770 C   0  0  0  0  0  0  0  0  0  0  0  0
    1.9420    3.8240    0.0320 C   0  0  0  0  0  0  0  0  0  0  0  0
    2.0200    4.5980   -1.0670 N   0  0  0  0  0  0  0  0  0  0  0  0
    2.5610    4.2330    1.2310 C   0  0  0  0  0  0  0  0  0  0  0  0
    2.7110    5.7560   -1.0220 C   0  0  0  0  0  0  0  0  0  0  0  0
    2.5230    3.5230    2.3800 N   0  0  0  0  0  0  0  0  0  0  0  0
    3.2690    5.4290    1.2810 C   0  0  0  0  0  0  0  0  0  0  0  0
    3.3740    6.2570    0.1280 C   0  0  0  0  0  0  0  0  0  0  0  0
    3.4020    4.4000    3.4400 S   0  0  0  0  0  0  0  0  0  0  0  0
    3.8200    5.6670    2.4920 N   0  0  0  0  0  0  0  0  0  0  0  0
    4.1440    7.5380    0.0960 C   0  0  1  0  0  0  0  0  0  0  0  0
    4.7330    8.3150    1.5890 B   0  0  0  0  0  0  0  0  0  0  0  0
    4.5400    8.3250   -1.0860 C   0  0  0  0  0  0  0  0  0  0  0  0
    5.5220    9.5770    0.6550 C   0  0  0  0  0  0  0  0  0  0  0  0
    4.2240    8.0200   -2.3620 N   0  0  0  0  0  0  0  0  0  0  0  0
    5.2950    9.4640   -0.7780 C   0  0  0  0  0  0  0  0  0  0  0  0
    6.3320   10.6080    1.2620 C   0  0  0  0  0  0  0  0  0  0  0  0
    4.6400    8.8840   -3.3120 C   0  0  0  0  0  0  0  0  0  0  0  0
    5.6890   10.3520   -1.7160 N   0  0  0  0  0  0  0  0  0  0  0  0
    7.3160   11.3100    0.6050 C   0  0  0  0  0  0  0  0  0  0  0  0
    6.1640   11.1190    2.9370 S   0  0  0  0  0  0  0  0  0  0  0  0
    5.3600   10.0510   -2.9890 C   0  0  0  0  0  0  0  0  0  0  0  0
    7.9480   12.2760    1.4420 C   0  0  0  0  0  0  0  0  0  0  0  0
    7.4460   12.3060    2.7200 C   0  0  0  0  0  0  0  0  0  0  0  0
   -0.6450   -0.8310   -0.3870 H   0  0  0  0  0  0  0  0  0  0  0  0
   -1.9550    1.2020    0.3030 H   0  0  0  0  0  0  0  0  0  0  0  0
    1.8140   -0.5900   -0.8500 H   0  0  0  0  0  0  0  0  0  0  0  0
   -0.7410    3.3900    0.4970 H   0  0  0  0  0  0  0  0  0  0  0  0
    2.6780    6.3020   -1.9560 H   0  0  0  0  0  0  0  0  0  0  0  0
    4.3830    8.6440   -4.3430 H   0  0  0  0  0  0  0  0  0  0  0  0
    7.6250   11.1510   -0.4200 H   0  0  0  0  0  0  0  0  0  0  0  0
    5.6800   10.7500   -3.7600 H   0  0  0  0  0  0  0  0  0  0  0  0
    8.7520   12.9170    1.0950 H   0  0  0  0  0  0  0  0  0  0  0  0
    7.7430   12.9370    3.5480 H   0  0  0  0  0  0  0  0  0  0  0  0
  1  2  2  0  0  0  0
  2  4  1  0  0  0  0
  2 31  1  0  0  0  0
  3  5  2  0  0  0  0
  3  1  1  0  0  0  0
  4 33  1  0  0  0  0
  5  6  1  0  0  0  0
  6  7  1  0  0  0  0
  6  4  2  0  0  0  0
  7  9  1  0  0  0  0
  8 10  1  0  0  0  0
  8  7  2  0  0  0  0
  9 12  1  0  0  0  0
  9 11  2  0  0  0  0
 10 13  2  0  0  0  0
 11 14  1  0  0  0  0
 12 15  2  0  0  0  0
 13 12  1  0  0  0  0
 15 14  1  0  0  0  0
 16 13  1  6  0  0  0
 16 17  1  0  0  0  0
 18 21  1  0  0  0  0
 18 16  1  0  0  0  0
 19 22  1  0  0  0  0
 19 17  2  0  0  0  0
 20 18  2  0  0  0  0
 21 19  1  0  0  0  0
 22 26  1  0  0  0  0
 23 27  2  0  0  0  0
 23 20  1  0  0  0  0
 24 21  2  0  0  0  0
 25 22  2  0  0  0  0
 25 28  1  0  0  0  0
 27 24  1  0  0  0  0
 28 29  2  0  0  0  0
 29 26  1  0  0  0  0
 29 39  1  0  0  0  0
 30  1  1  0  0  0  0
 32  3  1  0  0  0  0
 34 10  1  0  0  0  0
 35 23  1  0  0  0  0
 36 25  1  0  0  0  0
 37 27  1  0  0  0  0
 38 28  1  0  0  0  0
M  END
$$$$
scan_sander_basal_param/min_pdbs/min_pdb_C169_285.pdb
 OpenBabel10021702073D

 39 44  0  0  1  0  0  0  0  0999 V2000
   -0.1450    0.1240   -0.2480 C   0  0  0  0  0  0  0  0  0  0  0  0
   -0.9090    1.2960   -0.1540 C   0  0  0  0  0  0  0  0  0  0  0  0
    1.2550    0.2230   -0.2350 C   0  0  0  0  0  0  0  0  0  0  0  0
   -0.2340    2.5210   -0.0500 C   0  0  0  0  0  0  0  0  0  0  0  0
    1.8990    1.4010   -0.1360 N   0  0  0  0  0  0  0  0  0  0  0  0
    1.1810    2.5410   -0.0440 C   0  0  0  0  0  0  0  0  0  0  0  0
    1.9420    3.8230    0.0670 C   0  0  0  0  0  0  0  0  0  0  0  0
    1.9930    4.6070   -1.0270 N   0  0  0  0  0  0  0  0  0  0  0  0
    2.5880    4.2230    1.2560 C   0  0  0  0  0  0  0  0  0  0  0  0
    2.6820    5.7670   -0.9870 C   0  0  0  0  0  0  0  0  0  0  0  0
    2.5770    3.5060    2.4000 N   0  0  0  0  0  0  0  0  0  0  0  0
    3.2940    5.4200    1.2990 C   0  0  0  0  0  0  0  0  0  0  0  0
    3.3720    6.2580    0.1510 C   0  0  0  0  0  0  0  0  0  0  0  0
    3.4790    4.3760    3.4470 S   0  0  0  0  0  0  0  0  0  0  0  0
    3.8730    5.6500    2.4990 N   0  0  0  0  0  0  0  0  0  0  0  0
    4.1390    7.5410    0.1120 C   0  0  1  0  0  0  0  0  0  0  0  0
    4.7630    8.3060    1.5970 B   0  0  0  0  0  0  0  0  0  0  0  0
    4.5060    8.3390   -1.0720 C   0  0  0  0  0  0  0  0  0  0  0  0
    5.5330    9.5740    0.6550 C   0  0  0  0  0  0  0  0  0  0  0  0
    4.1570    8.0470   -2.3430 N   0  0  0  0  0  0  0  0  0  0  0  0
    5.2690    9.4740   -0.7730 C   0  0  0  0  0  0  0  0  0  0  0  0
    6.3620   10.5960    1.2500 C   0  0  0  0  0  0  0  0  0  0  0  0
    4.5490    8.9200   -3.2940 C   0  0  0  0  0  0  0  0  0  0  0  0
    5.6400   10.3710   -1.7120 N   0  0  0  0  0  0  0  0  0  0  0  0
    7.3320   11.3000    0.5750 C   0  0  0  0  0  0  0  0  0  0  0  0
    6.2380   11.0930    2.9340 S   0  0  0  0  0  0  0  0  0  0  0  0
    5.2790   10.0830   -2.9790 C   0  0  0  0  0  0  0  0  0  0  0  0
    7.9880   12.2560    1.4040 C   0  0  0  0  0  0  0  0  0  0  0  0
    7.5190   12.2770    2.6940 C   0  0  0  0  0  0  0  0  0  0  0  0
   -0.6260   -0.8460   -0.3300 H   0  0  0  0  0  0  0  0  0  0  0  0
   -1.9950    1.2570   -0.1630 H   0  0  0  0  0  0  0  0  0  0  0  0
    1.8810   -0.6660   -0.3060 H   0  0  0  0  0  0  0  0  0  0  0  0
   -0.7900    3.4510    0.0210 H   0  0  0  0  0  0  0  0  0  0  0  0
    2.6260    6.3210   -1.9150 H   0  0  0  0  0  0  0  0  0  0  0  0
    4.2650    8.6910   -4.3210 H   0  0  0  0  0  0  0  0  0  0  0  0
    7.6140   11.1490   -0.4590 H   0  0  0  0  0  0  0  0  0  0  0  0
    5.5800   10.7900   -3.7510 H   0  0  0  0  0  0  0  0  0  0  0  0
    8.7860   12.8970    1.0430 H   0  0  0  0  0  0  0  0  0  0  0  0
    7.8390   12.8990    3.5200 H   0  0  0  0  0  0  0  0  0  0  0  0
  1  3  2  0  0  0  0
  1  2  1  0  0  0  0
  2  4  2  0  0  0  0
  3  5  1  0  0  0  0
  4  6  1  0  0  0  0
  4 33  1  0  0  0  0
  5  6  2  0  0  0  0
  6  7  1  0  0  0  0
  7  9  1  0  0  0  0
  8 10  1  0  0  0  0
  8  7  2  0  0  0  0
  9 12  1  0  0  0  0
  9 11  2  0  0  0  0
 10 13  2  0  0  0  0
 11 14  1  0  0  0  0
 12 15  2  0  0  0  0
 13 12  1  0  0  0  0
 15 14  1  0  0  0  0
 16 13  1  6  0  0  0
 16 17  1  0  0  0  0
 18 21  1  0  0  0  0
 18 16  1  0  0  0  0
 19 22  1  0  0  0  0
 19 17  2  0  0  0  0
 20 18  2  0  0  0  0
 21 19  1  0  0  0  0
 22 26  1  0  0  0  0
 23 27  2  0  0  0  0
 23 20  1  0  0  0  0
 24 21  2  0  0  0  0
 25 22  2  0  0  0  0
 25 28  1  0  0  0  0
 27 24  1  0  0  0  0
 28 29  2  0  0  0  0
 29 26  1  0  0  0  0
 29 39  1  0  0  0  0
 30  1  1  0  0  0  0
 31  2  1  0  0  0  0
 32  3  1  0  0  0  0
 34 10  1  0  0  0  0
 35 23  1  0  0  0  0
 36 25  1  0  0  0  0
 37 27  1  0  0  0  0
 38 28  1  0  0  0  0
M  END
$$$$
scan_sander_basal_param/min_pdbs/min_pdb_C169_300.pdb
 OpenBabel10021702073D

 39 44  0  0  1  0  0  0  0  0999 V2000
   -0.1560    0.1220   -0.2180 C   0  0  0  0  0  0  0  0  0  0  0  0
   -0.8850    1.3040   -0.4130 C   0  0  0  0  0  0  0  0  0  0  0  0
    1.2150    0.2110    0.0720 C   0  0  0  0  0  0  0  0  0  0  0  0
   -0.2070    2.5270   -0.3060 C   0  0  0  0  0  0  0  0  0  0  0  0
    1.8620    1.3870    0.1730 N   0  0  0  0  0  0  0  0  0  0  0  0
    1.1770    2.5390   -0.0070 C   0  0  0  0  0  0  0  0  0  0  0  0
    1.9380    3.8230    0.1110 C   0  0  0  0  0  0  0  0  0  0  0  0
    1.9660    4.6180   -0.9760 N   0  0  0  0  0  0  0  0  0  0  0  0
    2.6150    4.2130    1.2870 C   0  0  0  0  0  0  0  0  0  0  0  0
    2.6560    5.7770   -0.9450 C   0  0  0  0  0  0  0  0  0  0  0  0
    2.6290    3.4940    2.4310 N   0  0  0  0  0  0  0  0  0  0  0  0
    3.3230    5.4110    1.3220 C   0  0  0  0  0  0  0  0  0  0  0  0
    3.3730    6.2580    0.1800 C   0  0  0  0  0  0  0  0  0  0  0  0
    3.5570    4.3560    3.4600 S   0  0  0  0  0  0  0  0  0  0  0  0
    3.9310    5.6340    2.5090 N   0  0  0  0  0  0  0  0  0  0  0  0
    4.1410    7.5410    0.1310 C   0  0  1  0  0  0  0  0  0  0  0  0
    4.8030    8.2940    1.6060 B   0  0  0  0  0  0  0  0  0  0  0  0
    4.4790    8.3470   -1.0560 C   0  0  0  0  0  0  0  0  0  0  0  0
    5.5500    9.5690    0.6550 C   0  0  0  0  0  0  0  0  0  0  0  0
    4.0990    8.0640   -2.3200 N   0  0  0  0  0  0  0  0  0  0  0  0
    5.2510    9.4800   -0.7670 C   0  0  0  0  0  0  0  0  0  0  0  0
    6.3930   10.5870    1.2370 C   0  0  0  0  0  0  0  0  0  0  0  0
    4.4690    8.9440   -3.2740 C   0  0  0  0  0  0  0  0  0  0  0  0
    5.5990   10.3830   -1.7080 N   0  0  0  0  0  0  0  0  0  0  0  0
    7.3450   11.2960    0.5430 C   0  0  0  0  0  0  0  0  0  0  0  0
    6.3110   11.0710    2.9270 S   0  0  0  0  0  0  0  0  0  0  0  0
    5.2070   10.1050   -2.9680 C   0  0  0  0  0  0  0  0  0  0  0  0
    8.0220   12.2460    1.3630 C   0  0  0  0  0  0  0  0  0  0  0  0
    7.5850   12.2570    2.6650 C   0  0  0  0  0  0  0  0  0  0  0  0
   -0.6390   -0.8460   -0.2930 H   0  0  0  0  0  0  0  0  0  0  0  0
   -1.9470    1.2730   -0.6430 H   0  0  0  0  0  0  0  0  0  0  0  0
    1.8140   -0.6850    0.2280 H   0  0  0  0  0  0  0  0  0  0  0  0
   -0.7370    3.4620   -0.4540 H   0  0  0  0  0  0  0  0  0  0  0  0
    2.5770    6.3380   -1.8670 H   0  0  0  0  0  0  0  0  0  0  0  0
    4.1600    8.7220   -4.2950 H   0  0  0  0  0  0  0  0  0  0  0  0
    7.6030   11.1530   -0.4980 H   0  0  0  0  0  0  0  0  0  0  0  0
    5.4890   10.8170   -3.7420 H   0  0  0  0  0  0  0  0  0  0  0  0
    8.8110   12.8900    0.9870 H   0  0  0  0  0  0  0  0  0  0  0  0
    7.9250   12.8730    3.4870 H   0  0  0  0  0  0  0  0  0  0  0  0
  1  3  2  0  0  0  0
  2  4  2  0  0  0  0
  2  1  1  0  0  0  0
  3  5  1  0  0  0  0
  3 32  1  0  0  0  0
  4  6  1  0  0  0  0
  6  7  1  0  0  0  0
  6  5  2  0  0  0  0
  7  9  1  0  0  0  0
  8 10  1  0  0  0  0
  8  7  2  0  0  0  0
  9 12  1  0  0  0  0
  9 11  2  0  0  0  0
 10 13  2  0  0  0  0
 11 14  1  0  0  0  0
 12 15  2  0  0  0  0
 13 12  1  0  0  0  0
 15 14  1  0  0  0  0
 16 13  1  6  0  0  0
 16 17  1  0  0  0  0
 18 21  1  0  0  0  0
 18 16  1  0  0  0  0
 19 22  1  0  0  0  0
 19 17  2  0  0  0  0
 20 18  2  0  0  0  0
 21 19  1  0  0  0  0
 22 26  1  0  0  0  0
 23 27  2  0  0  0  0
 23 20  1  0  0  0  0
 24 21  2  0  0  0  0
 25 22  2  0  0  0  0
 25 28  1  0  0  0  0
 27 24  1  0  0  0  0
 28 29  2  0  0  0  0
 29 26  1  0  0  0  0
 29 39  1  0  0  0  0
 30  1  1  0  0  0  0
 31  2  1  0  0  0  0
 33  4  1  0  0  0  0
 34 10  1  0  0  0  0
 35 23  1  0  0  0  0
 36 25  1  0  0  0  0
 37 27  1  0  0  0  0
 38 28  1  0  0  0  0
M  END
$$$$
scan_sander_basal_param/min_pdbs/min_pdb_C169_315.pdb
 OpenBabel10021702073D

 39 44  0  0  1  0  0  0  0  0999 V2000
   -0.1830    0.1250   -0.2020 C   0  0  0  0  0  0  0  0  0  0  0  0
   -0.8140    1.2880   -0.6650 C   0  0  0  0  0  0  0  0  0  0  0  0
    1.1010    0.2270    0.3540 C   0  0  0  0  0  0  0  0  0  0  0  0
   -0.1280    2.5060   -0.5460 C   0  0  0  0  0  0  0  0  0  0  0  0
    1.7540    1.3980    0.4640 N   0  0  0  0  0  0  0  0  0  0  0  0
    1.1660    2.5360    0.0320 C   0  0  0  0  0  0  0  0  0  0  0  0
    1.9320    3.8210    0.1620 C   0  0  0  0  0  0  0  0  0  0  0  0
    1.9380    4.6300   -0.9170 N   0  0  0  0  0  0  0  0  0  0  0  0
    2.6450    4.2040    1.3240 C   0  0  0  0  0  0  0  0  0  0  0  0
    2.6300    5.7870   -0.8950 C   0  0  0  0  0  0  0  0  0  0  0  0
    2.6870    3.4850    2.4680 N   0  0  0  0  0  0  0  0  0  0  0  0
    3.3560    5.4010    1.3490 C   0  0  0  0  0  0  0  0  0  0  0  0
    3.3780    6.2580    0.2120 C   0  0  0  0  0  0  0  0  0  0  0  0
    3.6420    4.3390    3.4770 S   0  0  0  0  0  0  0  0  0  0  0  0
    3.9950    5.6180    2.5200 N   0  0  0  0  0  0  0  0  0  0  0  0
    4.1470    7.5390    0.1520 C   0  0  1  0  0  0  0  0  0  0  0  0
    4.8500    8.2810    1.6140 B   0  0  0  0  0  0  0  0  0  0  0  0
    4.4550    8.3540   -1.0370 C   0  0  0  0  0  0  0  0  0  0  0  0
    5.5690    9.5650    0.6540 C   0  0  0  0  0  0  0  0  0  0  0  0
    4.0440    8.0780   -2.2930 N   0  0  0  0  0  0  0  0  0  0  0  0
    5.2330    9.4850   -0.7610 C   0  0  0  0  0  0  0  0  0  0  0  0
    6.4240   10.5810    1.2220 C   0  0  0  0  0  0  0  0  0  0  0  0
    4.3890    8.9640   -3.2510 C   0  0  0  0  0  0  0  0  0  0  0  0
    5.5580   10.3940   -1.7040 N   0  0  0  0  0  0  0  0  0  0  0  0
    7.3570   11.2980    0.5090 C   0  0  0  0  0  0  0  0  0  0  0  0
    6.3840   11.0520    2.9160 S   0  0  0  0  0  0  0  0  0  0  0  0
    5.1340   10.1230   -2.9560 C   0  0  0  0  0  0  0  0  0  0  0  0
    8.0520   12.2430    1.3180 C   0  0  0  0  0  0  0  0  0  0  0  0
    7.6480   12.2440    2.6310 C   0  0  0  0  0  0  0  0  0  0  0  0
   -0.6760   -0.8390   -0.2750 H   0  0  0  0  0  0  0  0  0  0  0  0
   -1.8070    1.2480   -1.1050 H   0  0  0  0  0  0  0  0  0  0  0  0
    1.6240   -0.6560    0.7220 H   0  0  0  0  0  0  0  0  0  0  0  0
   -0.5860    3.4260   -0.8970 H   0  0  0  0  0  0  0  0  0  0  0  0
    2.5280    6.3550   -1.8110 H   0  0  0  0  0  0  0  0  0  0  0  0
    4.0560    8.7490   -4.2650 H   0  0  0  0  0  0  0  0  0  0  0  0
    7.5880   11.1630   -0.5390 H   0  0  0  0  0  0  0  0  0  0  0  0
    5.3980   10.8400   -3.7320 H   0  0  0  0  0  0  0  0  0  0  0  0
    8.8280   12.8930    0.9280 H   0  0  0  0  0  0  0  0  0  0  0  0
    8.0070   12.8550    3.4490 H   0  0  0  0  0  0  0  0  0  0  0  0
  1  3  2  0  0  0  0
  2  4  2  0  0  0  0
  2  1  1  0  0  0  0
  3  5  1  0  0  0  0
  3 32  1  0  0  0  0
  4  6  1  0  0  0  0
  6  7  1  0  0  0  0
  6  5  2  0  0  0  0
  7  9  1  0  0  0  0
  8 10  1  0  0  0  0
  8  7  2  0  0  0  0
  9 12  1  0  0  0  0
  9 11  2  0  0  0  0
 10 13  2  0  0  0  0
 11 14  1  0  0  0  0
 12 15  2  0  0  0  0
 13 12  1  0  0  0  0
 15 14  1  0  0  0  0
 16 13  1  6  0  0  0
 16 17  1  0  0  0  0
 18 21  1  0  0  0  0
 18 16  1  0  0  0  0
 19 22  1  0  0  0  0
 19 17  2  0  0  0  0
 20 18  2  0  0  0  0
 21 19  1  0  0  0  0
 22 26  1  0  0  0  0
 23 27  2  0  0  0  0
 23 20  1  0  0  0  0
 24 21  2  0  0  0  0
 25 22  2  0  0  0  0
 25 28  1  0  0  0  0
 27 24  1  0  0  0  0
 28 29  2  0  0  0  0
 29 26  1  0  0  0  0
 29 39  1  0  0  0  0
 30  1  1  0  0  0  0
 31  2  1  0  0  0  0
 33  4  1  0  0  0  0
 34 10  1  0  0  0  0
 35 23  1  0  0  0  0
 36 25  1  0  0  0  0
 37 27  1  0  0  0  0
 38 28  1  0  0  0  0
M  END
$$$$
scan_sander_basal_param/min_pdbs/min_pdb_C169_330.pdb
 OpenBabel10021702073D

 39 44  0  0  1  0  0  0  0  0999 V2000
   -0.2340    0.1350   -0.1860 C   0  0  0  0  0  0  0  0  0  0  0  0
   -0.7060    1.2520   -0.8870 C   0  0  0  0  0  0  0  0  0  0  0  0
    0.9140    0.2730    0.6070 C   0  0  0  0  0  0  0  0  0  0  0  0
   -0.0070    2.4610   -0.7600 C   0  0  0  0  0  0  0  0  0  0  0  0
    1.5800    1.4360    0.7230 N   0  0  0  0  0  0  0  0  0  0  0  0
    1.1470    2.5350    0.0640 C   0  0  0  0  0  0  0  0  0  0  0  0
    1.9300    3.8180    0.2070 C   0  0  0  0  0  0  0  0  0  0  0  0
    1.9160    4.6420   -0.8620 N   0  0  0  0  0  0  0  0  0  0  0  0
    2.6780    4.1910    1.3540 C   0  0  0  0  0  0  0  0  0  0  0  0
    2.6120    5.7950   -0.8500 C   0  0  0  0  0  0  0  0  0  0  0  0
    2.7520    3.4710    2.4960 N   0  0  0  0  0  0  0  0  0  0  0  0
    3.3940    5.3870    1.3690 C   0  0  0  0  0  0  0  0  0  0  0  0
    3.3900    6.2540    0.2410 C   0  0  0  0  0  0  0  0  0  0  0  0
    3.7360    4.3160    3.4840 S   0  0  0  0  0  0  0  0  0  0  0  0
    4.0650    5.5970    2.5230 N   0  0  0  0  0  0  0  0  0  0  0  0
    4.1600    7.5350    0.1710 C   0  0  1  0  0  0  0  0  0  0  0  0
    4.9040    8.2640    1.6190 B   0  0  0  0  0  0  0  0  0  0  0  0
    4.4380    8.3580   -1.0200 C   0  0  0  0  0  0  0  0  0  0  0  0
    5.5900    9.5600    0.6520 C   0  0  0  0  0  0  0  0  0  0  0  0
    4.0000    8.0890   -2.2680 N   0  0  0  0  0  0  0  0  0  0  0  0
    5.2210    9.4890   -0.7550 C   0  0  0  0  0  0  0  0  0  0  0  0
    6.4530   10.5770    1.2070 C   0  0  0  0  0  0  0  0  0  0  0  0
    4.3220    8.9820   -3.2280 C   0  0  0  0  0  0  0  0  0  0  0  0
    5.5230   10.4040   -1.7000 N   0  0  0  0  0  0  0  0  0  0  0  0
    7.3630   11.3060    0.4790 C   0  0  0  0  0  0  0  0  0  0  0  0
    6.4500   11.0330    2.9070 S   0  0  0  0  0  0  0  0  0  0  0  0
    5.0710   10.1400   -2.9430 C   0  0  0  0  0  0  0  0  0  0  0  0
    8.0710   12.2490    1.2790 C   0  0  0  0  0  0  0  0  0  0  0  0
    7.6980   12.2360    2.6010 C   0  0  0  0  0  0  0  0  0  0  0  0
   -0.7440   -0.8210   -0.2560 H   0  0  0  0  0  0  0  0  0  0  0  0
   -1.5910    1.1840   -1.5150 H   0  0  0  0  0  0  0  0  0  0  0  0
    1.3140   -0.5720    1.1660 H   0  0  0  0  0  0  0  0  0  0  0  0
   -0.3520    3.3410   -1.2940 H   0  0  0  0  0  0  0  0  0  0  0  0
    2.4870    6.3720   -1.7570 H   0  0  0  0  0  0  0  0  0  0  0  0
    3.9650    8.7710   -4.2360 H   0  0  0  0  0  0  0  0  0  0  0  0
    7.5700   11.1820   -0.5760 H   0  0  0  0  0  0  0  0  0  0  0  0
    5.3150   10.8620   -3.7210 H   0  0  0  0  0  0  0  0  0  0  0  0
    8.8340   12.9080    0.8760 H   0  0  0  0  0  0  0  0  0  0  0  0
    8.0730   12.8430    3.4150 H   0  0  0  0  0  0  0  0  0  0  0  0
  1  3  2  0  0  0  0
  2  4  2  0  0  0  0
  2  1  1  0  0  0  0
  3  5  1  0  0  0  0
  3 32  1  0  0  0  0
  4  6  1  0  0  0  0
  6  7  1  0  0  0  0
  6  5  2  0  0  0  0
  7  9  1  0  0  0  0
  8 10  1  0  0  0  0
  8  7  2  0  0  0  0
  9 12  1  0  0  0  0
  9 11  2  0  0  0  0
 10 13  2  0  0  0  0
 11 14  1  0  0  0  0
 12 15  2  0  0  0  0
 13 12  1  0  0  0  0
 15 14  1  0  0  0  0
 16 13  1  6  0  0  0
 16 17  1  0  0  0  0
 18 21  1  0  0  0  0
 18 16  1  0  0  0  0
 19 22  1  0  0  0  0
 19 17  2  0  0  0  0
 20 18  2  0  0  0  0
 21 19  1  0  0  0  0
 22 26  1  0  0  0  0
 23 27  2  0  0  0  0
 23 20  1  0  0  0  0
 24 21  2  0  0  0  0
 25 22  2  0  0  0  0
 25 28  1  0  0  0  0
 27 24  1  0  0  0  0
 28 29  2  0  0  0  0
 29 26  1  0  0  0  0
 29 39  1  0  0  0  0
 30  1  1  0  0  0  0
 31  2  1  0  0  0  0
 33  4  1  0  0  0  0
 34 10  1  0  0  0  0
 35 23  1  0  0  0  0
 36 25  1  0  0  0  0
 37 27  1  0  0  0  0
 38 28  1  0  0  0  0
M  END
$$$$
scan_sander_basal_param/min_pdbs/min_pdb_C169_345.pdb
 OpenBabel10021702073D

 39 44  0  0  1  0  0  0  0  0999 V2000
   -0.2660    0.1360   -0.1690 C   0  0  0  0  0  0  0  0  0  0  0  0
   -0.5390    1.1670   -1.0760 C   0  0  0  0  0  0  0  0  0  0  0  0
    0.7000    0.3530    0.8240 C   0  0  0  0  0  0  0  0  0  0  0  0
    0.1690    2.3710   -0.9480 C   0  0  0  0  0  0  0  0  0  0  0  0
    1.3740    1.5110    0.9380 N   0  0  0  0  0  0  0  0  0  0  0  0
    1.1360    2.5320    0.0820 C   0  0  0  0  0  0  0  0  0  0  0  0
    1.9270    3.8160    0.2350 C   0  0  0  0  0  0  0  0  0  0  0  0
    1.8950    4.6550   -0.8230 N   0  0  0  0  0  0  0  0  0  0  0  0
    2.6970    4.1870    1.3730 C   0  0  0  0  0  0  0  0  0  0  0  0
    2.5850    5.8120   -0.8150 C   0  0  0  0  0  0  0  0  0  0  0  0
    2.8090    3.4610    2.5090 N   0  0  0  0  0  0  0  0  0  0  0  0
    3.4080    5.3880    1.3830 C   0  0  0  0  0  0  0  0  0  0  0  0
    3.3810    6.2650    0.2630 C   0  0  0  0  0  0  0  0  0  0  0  0
    3.8060    4.3060    3.4830 S   0  0  0  0  0  0  0  0  0  0  0  0
    4.1040    5.5940    2.5240 N   0  0  0  0  0  0  0  0  0  0  0  0
    4.1450    7.5500    0.1900 C   0  0  1  0  0  0  0  0  0  0  0  0
    4.9120    8.2710    1.6290 B   0  0  0  0  0  0  0  0  0  0  0  0
    4.3970    8.3840   -1.0000 C   0  0  0  0  0  0  0  0  0  0  0  0
    5.5930    9.5650    0.6550 C   0  0  0  0  0  0  0  0  0  0  0  0
    3.9250    8.1310   -2.2390 N   0  0  0  0  0  0  0  0  0  0  0  0
    5.1900    9.5090   -0.7420 C   0  0  0  0  0  0  0  0  0  0  0  0
    6.4820   10.5670    1.1970 C   0  0  0  0  0  0  0  0  0  0  0  0
    4.2250    9.0330   -3.1970 C   0  0  0  0  0  0  0  0  0  0  0  0
    5.4710   10.4340   -1.6850 N   0  0  0  0  0  0  0  0  0  0  0  0
    7.3840   11.2880    0.4510 C   0  0  0  0  0  0  0  0  0  0  0  0
    6.5260   11.0120    2.8980 S   0  0  0  0  0  0  0  0  0  0  0  0
    4.9870   10.1850   -2.9190 C   0  0  0  0  0  0  0  0  0  0  0  0
    8.1240   12.2170    1.2400 C   0  0  0  0  0  0  0  0  0  0  0  0
    7.7830   12.2000    2.5700 C   0  0  0  0  0  0  0  0  0  0  0  0
   -0.7900   -0.8130   -0.2310 H   0  0  0  0  0  0  0  0  0  0  0  0
   -1.2790    1.0370   -1.8610 H   0  0  0  0  0  0  0  0  0  0  0  0
    0.9430   -0.4230    1.5490 H   0  0  0  0  0  0  0  0  0  0  0  0
   -0.0320    3.1800   -1.6440 H   0  0  0  0  0  0  0  0  0  0  0  0
    2.4410    6.3940   -1.7160 H   0  0  0  0  0  0  0  0  0  0  0  0
    3.8420    8.8350   -4.1970 H   0  0  0  0  0  0  0  0  0  0  0  0
    7.5630   11.1680   -0.6090 H   0  0  0  0  0  0  0  0  0  0  0  0
    5.2130   10.9150   -3.6940 H   0  0  0  0  0  0  0  0  0  0  0  0
    8.8860   12.8670    0.8220 H   0  0  0  0  0  0  0  0  0  0  0  0
    8.1860   12.7960    3.3790 H   0  0  0  0  0  0  0  0  0  0  0  0
  1  3  2  0  0  0  0
  2  4  2  0  0  0  0
  2  1  1  0  0  0  0
  3  5  1  0  0  0  0
  3 32  1  0  0  0  0
  4  6  1  0  0  0  0
  6  7  1  0  0  0  0
  6  5  2  0  0  0  0
  7  9  1  0  0  0  0
  8 10  1  0  0  0  0
  8  7  2  0  0  0  0
  9 12  1  0  0  0  0
  9 11  2  0  0  0  0
 10 13  2  0  0  0  0
 11 14  1  0  0  0  0
 12 15  2  0  0  0  0
 13 12  1  0  0  0  0
 15 14  1  0  0  0  0
 16 13  1  6  0  0  0
 16 17  1  0  0  0  0
 18 21  1  0  0  0  0
 18 16  1  0  0  0  0
 19 22  1  0  0  0  0
 19 17  2  0  0  0  0
 20 18  2  0  0  0  0
 21 19  1  0  0  0  0
 22 26  1  0  0  0  0
 23 27  2  0  0  0  0
 23 20  1  0  0  0  0
 24 21  2  0  0  0  0
 25 22  2  0  0  0  0
 25 28  1  0  0  0  0
 27 24  1  0  0  0  0
 28 29  2  0  0  0  0
 29 26  1  0  0  0  0
 29 39  1  0  0  0  0
 30  1  1  0  0  0  0
 31  2  1  0  0  0  0
 33  4  1  0  0  0  0
 34 10  1  0  0  0  0
 35 23  1  0  0  0  0
 36 25  1  0  0  0  0
 37 27  1  0  0  0  0
 38 28  1  0  0  0  0
M  END
$$$$
scan_sander_basal_param/min_pdbs/min_pdb_C169_360.pdb
 OpenBabel10021702073D

 39 44  0  0  1  0  0  0  0  0999 V2000
   -0.3480    0.1730   -0.1280 C   0  0  0  0  0  0  0  0  0  0  0  0
   -0.3850    1.0840   -1.1900 C   0  0  0  0  0  0  0  0  0  0  0  0
    0.4270    0.4860    0.9970 C   0  0  0  0  0  0  0  0  0  0  0  0
    0.3560    2.2690   -1.0770 C   0  0  0  0  0  0  0  0  0  0  0  0
    1.1350    1.6250    1.0940 N   0  0  0  0  0  0  0  0  0  0  0  0
    1.1270    2.5320    0.0910 C   0  0  0  0  0  0  0  0  0  0  0  0
    1.9440    3.8040    0.2380 C   0  0  0  0  0  0  0  0  0  0  0  0
    1.8890    4.6600   -0.8060 N   0  0  0  0  0  0  0  0  0  0  0  0
    2.7470    4.1570    1.3600 C   0  0  0  0  0  0  0  0  0  0  0  0
    2.5800    5.8160   -0.8000 C   0  0  0  0  0  0  0  0  0  0  0  0
    2.9090    3.4070    2.4740 N   0  0  0  0  0  0  0  0  0  0  0  0
    3.4590    5.3590    1.3690 C   0  0  0  0  0  0  0  0  0  0  0  0
    3.4010    6.2540    0.2650 C   0  0  0  0  0  0  0  0  0  0  0  0
    3.9310    4.2380    3.4330 S   0  0  0  0  0  0  0  0  0  0  0  0
    4.1920    5.5450    2.4890 N   0  0  0  0  0  0  0  0  0  0  0  0
    4.1590    7.5420    0.1920 C   0  0  1  0  0  0  0  0  0  0  0  0
    4.9620    8.2420    1.6230 B   0  0  0  0  0  0  0  0  0  0  0  0
    4.3790    8.3960   -0.9900 C   0  0  0  0  0  0  0  0  0  0  0  0
    5.6090    9.5570    0.6550 C   0  0  0  0  0  0  0  0  0  0  0  0
    3.8790    8.1590   -2.2210 N   0  0  0  0  0  0  0  0  0  0  0  0
    5.1720    9.5210   -0.7330 C   0  0  0  0  0  0  0  0  0  0  0  0
    6.5020   10.5570    1.1910 C   0  0  0  0  0  0  0  0  0  0  0  0
    4.1520    9.0770   -3.1720 C   0  0  0  0  0  0  0  0  0  0  0  0
    5.4260   10.4610   -1.6680 N   0  0  0  0  0  0  0  0  0  0  0  0
    7.3800   11.2990    0.4360 C   0  0  0  0  0  0  0  0  0  0  0  0
    6.5840   10.9750    2.8980 S   0  0  0  0  0  0  0  0  0  0  0  0
    4.9130   10.2290   -2.8940 C   0  0  0  0  0  0  0  0  0  0  0  0
    8.1320   12.2210    1.2220 C   0  0  0  0  0  0  0  0  0  0  0  0
    7.8240   12.1790    2.5600 C   0  0  0  0  0  0  0  0  0  0  0  0
   -0.9060   -0.7570   -0.1720 H   0  0  0  0  0  0  0  0  0  0  0  0
   -0.9740    0.8790   -2.0800 H   0  0  0  0  0  0  0  0  0  0  0  0
    0.4850   -0.1950    1.8460 H   0  0  0  0  0  0  0  0  0  0  0  0
    0.3350    2.9820   -1.8960 H   0  0  0  0  0  0  0  0  0  0  0  0
    2.4110    6.4120   -1.6870 H   0  0  0  0  0  0  0  0  0  0  0  0
    3.7460    8.8930   -4.1660 H   0  0  0  0  0  0  0  0  0  0  0  0
    7.5350   11.1980   -0.6300 H   0  0  0  0  0  0  0  0  0  0  0  0
    5.1180   10.9720   -3.6630 H   0  0  0  0  0  0  0  0  0  0  0  0
    8.8780   12.8840    0.7970 H   0  0  0  0  0  0  0  0  0  0  0  0
    8.2410   12.7640    3.3690 H   0  0  0  0  0  0  0  0  0  0  0  0
  1  3  2  0  0  0  0
  2  4  2  0  0  0  0
  2  1  1  0  0  0  0
  3  5  1  0  0  0  0
  3 32  1  0  0  0  0
  4  6  1  0  0  0  0
  6  7  1  0  0  0  0
  6  5  2  0  0  0  0
  7  9  1  0  0  0  0
  8 10  1  0  0  0  0
  8  7  2  0  0  0  0
  9 12  1  0  0  0  0
  9 11  2  0  0  0  0
 10 13  2  0  0  0  0
 11 14  1  0  0  0  0
 12 15  2  0  0  0  0
 13 12  1  0  0  0  0
 15 14  1  0  0  0  0
 16 13  1  6  0  0  0
 16 17  1  0  0  0  0
 18 21  1  0  0  0  0
 18 16  1  0  0  0  0
 19 22  1  0  0  0  0
 19 17  2  0  0  0  0
 20 18  2  0  0  0  0
 21 19  1  0  0  0  0
 22 26  1  0  0  0  0
 23 27  2  0  0  0  0
 23 20  1  0  0  0  0
 24 21  2  0  0  0  0
 25 22  2  0  0  0  0
 25 28  1  0  0  0  0
 27 24  1  0  0  0  0
 28 29  2  0  0  0  0
 29 26  1  0  0  0  0
 29 39  1  0  0  0  0
 30  1  1  0  0  0  0
 31  2  1  0  0  0  0
 33  4  1  0  0  0  0
 34 10  1  0  0  0  0
 35 23  1  0  0  0  0
 36 25  1  0  0  0  0
 37 27  1  0  0  0  0
 38 28  1  0  0  0  0
M  END
$$$$
